Network_13R-103/scenario_55/case.raw
0,100.0,33,0,0,60.0
GRID OPTIMIZATION COMPETITION
INPUT DATA FILES ARE RAW ROP INL CON
1,'            ',115.0,1,1,1,1,1.0499902,-29.586257,1.1,0.9,1.1,0.9
2,'            ',115.0,1,1,1,1,1.0493792,-30.736839,1.1,0.9,1.1,0.9
3,'            ',115.0,1,1,1,1,1.0393421,-27.271122,1.1,0.9,1.1,0.9
4,'            ',115.0,1,1,1,1,1.0438172,-33.38215,1.1,0.9,1.1,0.9
5,'            ',115.0,1,1,1,1,1.0438432,-33.378997,1.1,0.9,1.1,0.9
6,'            ',115.0,1,1,1,1,1.0387625,-21.125179,1.1,0.9,1.1,0.9
7,'            ',115.0,1,1,1,1,1.0406273,-21.040386,1.1,0.9,1.1,0.9
8,'            ',115.0,1,1,1,1,1.0513781,-34.424433,1.1,0.9,1.1,0.9
9,'            ',115.0,1,1,1,1,1.0503702,-33.81497,1.1,0.9,1.1,0.9
10,'            ',115.0,1,1,1,1,1.0471892,-29.821644,1.1,0.9,1.1,0.9
11,'            ',115.0,1,1,1,1,1.0516877,-28.683405,1.1,0.9,1.1,0.9
12,'            ',230.0,1,1,1,1,1.0458675,-26.541637,1.1,0.9,1.1,0.9
13,'            ',115.0,1,1,1,1,1.0536462,-27.960985,1.1,0.9,1.1,0.9
14,'            ',230.0,1,1,1,1,1.0457627,-26.551759,1.1,0.9,1.1,0.9
15,'            ',230.0,1,1,1,1,1.0462275,-26.508484,1.1,0.9,1.1,0.9
16,'            ',230.0,1,1,1,1,1.0682171,-28.465527,1.1,0.9,1.1,0.9
17,'            ',115.0,1,1,1,1,1.0685947,-28.716127,1.1,0.9,1.1,0.9
18,'            ',230.0,1,1,1,1,1.0681355,-28.477447,1.1,0.9,1.1,0.9
19,'            ',230.0,1,1,1,1,1.0682913,-28.447483,1.1,0.9,1.1,0.9
20,'            ',230.0,1,1,1,1,1.0505201,-31.008923,1.1,0.9,1.1,0.9
21,'            ',115.0,1,1,1,1,1.061266,-32.238241,1.1,0.9,1.1,0.9
22,'            ',230.0,1,1,1,1,1.0510835,-30.979313,1.1,0.9,1.1,0.9
23,'            ',230.0,1,1,1,1,1.0505201,-31.008923,1.1,0.9,1.1,0.9
24,'            ',115.0,1,1,1,1,1.0349927,-28.603269,1.1,0.9,1.1,0.9
25,'            ',115.0,1,1,1,1,1.0373163,-28.532985,1.1,0.9,1.1,0.9
26,'            ',115.0,1,1,1,1,1.0429881,-18.972539,1.1,0.9,1.1,0.9
27,'            ',500.0,1,1,1,1,1.0425,-26.445933,1.1,0.9,1.1,0.9
28,'            ',230.0,1,1,1,1,1.0483527,-25.691131,1.1,0.9,1.1,0.9
29,'            ',115.0,1,1,1,1,1.0493175,-27.574402,1.1,0.9,1.1,0.9
30,'            ',500.0,1,1,1,1,1.0421106,-26.477842,1.1,0.9,1.1,0.9
31,'            ',230.0,1,1,1,1,1.0475752,-25.535078,1.1,0.9,1.1,0.9
32,'            ',115.0,1,1,1,1,1.0353711,-28.491402,1.1,0.9,1.1,0.9
33,'            ',115.0,1,1,1,1,1.0351726,-28.51706,1.1,0.9,1.1,0.9
34,'            ',115.0,1,1,1,1,1.0435497,-36.035417,1.1,0.9,1.1,0.9
35,'            ',115.0,1,1,1,1,1.0509647,-34.500379,1.1,0.9,1.1,0.9
36,'            ',115.0,1,1,1,1,1.0509001,-34.507067,1.1,0.9,1.1,0.9
37,'            ',230.0,1,1,1,1,1.0490379,-31.88505,1.1,0.9,1.1,0.9
38,'            ',115.0,1,1,1,1,1.0594044,-33.828135,1.1,0.9,1.1,0.9
39,'            ',230.0,1,1,1,1,1.0488289,-31.899186,1.1,0.9,1.1,0.9
40,'            ',115.0,1,1,1,1,1.0372461,-30.454638,1.1,0.9,1.1,0.9
41,'            ',115.0,1,1,1,1,1.0359399,-28.463878,1.1,0.9,1.1,0.9
42,'            ',115.0,1,1,1,1,1.0380009,-30.065439,1.1,0.9,1.1,0.9
43,'            ',115.0,1,1,1,1,1.0375309,-28.269909,1.1,0.9,1.1,0.9
44,'            ',115.0,1,1,1,1,1.0440881,-27.922649,1.1,0.9,1.1,0.9
45,'            ',115.0,1,1,1,1,1.0414285,-28.053437,1.1,0.9,1.1,0.9
46,'            ',115.0,1,1,1,1,1.0506399,-35.845899,1.1,0.9,1.1,0.9
47,'            ',115.0,1,1,1,1,1.0355,-34.569736,1.1,0.9,1.1,0.9
48,'            ',115.0,1,1,1,1,1.0353003,-34.354067,1.1,0.9,1.1,0.9
49,'            ',115.0,1,1,1,1,1.0355,-22.124859,1.1,0.9,1.1,0.9
50,'            ',115.0,1,1,1,1,1.0355571,-22.124293,1.1,0.9,1.1,0.9
51,'            ',115.0,1,1,1,1,1.0406867,-31.017097,1.1,0.9,1.1,0.9
52,'            ',115.0,1,1,1,1,1.0448678,-30.763129,1.1,0.9,1.1,0.9
53,'            ',115.0,1,1,1,1,1.0450343,-30.746086,1.1,0.9,1.1,0.9
54,'            ',115.0,1,1,1,1,1.0398631,-30.9098,1.1,0.9,1.1,0.9
55,'            ',115.0,1,1,1,1,1.0397391,-30.92722,1.1,0.9,1.1,0.9
56,'            ',115.0,1,1,1,1,1.0480755,-36.762069,1.1,0.9,1.1,0.9
57,'            ',115.0,1,1,1,1,1.0480345,-36.767574,1.1,0.9,1.1,0.9
58,'            ',115.0,1,1,1,1,1.0430541,-30.802038,1.1,0.9,1.1,0.9
59,'            ',115.0,1,1,1,1,1.0455953,-30.742605,1.1,0.9,1.1,0.9
60,'            ',115.0,1,1,1,1,1.0426104,-30.454663,1.1,0.9,1.1,0.9
61,'            ',115.0,1,1,1,1,1.0425593,-30.462335,1.1,0.9,1.1,0.9
62,'            ',115.0,1,1,1,1,1.0382658,-35.375135,1.1,0.9,1.1,0.9
63,'            ',230.0,1,1,1,1,1.0342712,-27.504428,1.1,0.9,1.1,0.9
64,'            ',115.0,1,1,1,1,1.0519538,-30.234182,1.1,0.9,1.1,0.9
65,'            ',230.0,1,1,1,1,1.0357165,-27.413587,1.1,0.9,1.1,0.9
66,'            ',230.0,1,1,1,1,1.0339668,-27.541139,1.1,0.9,1.1,0.9
67,'            ',115.0,1,1,1,1,1.0465899,-30.268037,1.1,0.9,1.1,0.9
68,'            ',115.0,1,1,1,1,1.064286,-29.095051,1.1,0.9,1.1,0.9
69,'            ',115.0,1,1,1,1,1.0642154,-29.102506,1.1,0.9,1.1,0.9
70,'            ',115.0,1,1,1,1,1.0643629,-29.393155,1.1,0.9,1.1,0.9
71,'            ',115.0,1,1,1,1,1.039008,-32.534658,1.1,0.9,1.1,0.9
72,'            ',230.0,1,1,1,1,1.0419236,-31.152467,1.1,0.9,1.1,0.9
73,'            ',115.0,1,1,1,1,1.0425303,-31.48974,1.1,0.9,1.1,0.9
74,'            ',230.0,1,1,1,1,1.0418764,-31.162538,1.1,0.9,1.1,0.9
75,'            ',230.0,1,1,1,1,1.0425263,-31.124732,1.1,0.9,1.1,0.9
76,'            ',115.0,1,1,1,1,1.0413573,-30.684333,1.1,0.9,1.1,0.9
77,'            ',115.0,1,1,1,1,1.040401,-30.236057,1.1,0.9,1.1,0.9
78,'            ',115.0,1,1,1,1,1.0664289,-29.207445,1.1,0.9,1.1,0.9
79,'            ',230.0,1,1,1,1,1.0380655,-33.774867,1.1,0.9,1.1,0.9
80,'            ',115.0,1,1,1,1,1.0503093,-35.176762,1.1,0.9,1.1,0.9
81,'            ',230.0,1,1,1,1,1.0390866,-33.705259,1.1,0.9,1.1,0.9
82,'            ',230.0,1,1,1,1,1.0377678,-33.823338,1.1,0.9,1.1,0.9
83,'            ',115.0,1,1,1,1,1.0371302,-35.794632,1.1,0.9,1.1,0.9
84,'            ',115.0,1,1,1,1,1.0368621,-35.816712,1.1,0.9,1.1,0.9
85,'            ',115.0,1,1,1,1,1.0373707,-35.772015,1.1,0.9,1.1,0.9
86,'            ',115.0,1,1,1,1,1.0362901,-21.947866,1.1,0.9,1.1,0.9
87,'            ',115.0,1,1,1,1,1.0316763,-35.229504,1.1,0.9,1.1,0.9
88,'            ',115.0,1,1,1,1,1.0312298,-35.250395,1.1,0.9,1.1,0.9
89,'            ',115.0,1,1,1,1,1.0313862,-35.56271,1.1,0.9,1.1,0.9
90,'            ',115.0,1,1,1,1,1.0311933,-35.578746,1.1,0.9,1.1,0.9
91,'            ',500.0,1,1,1,1,1.045623,-31.840971,1.1,0.9,1.1,0.9
92,'            ',230.0,1,1,1,1,1.0481724,-32.620576,1.1,0.9,1.1,0.9
93,'            ',115.0,1,1,1,1,1.0483587,-34.085545,1.1,0.9,1.1,0.9
94,'            ',500.0,1,1,1,1,1.0453069,-31.873159,1.1,0.9,1.1,0.9
95,'            ',500.0,1,1,1,1,1.048841,-31.710802,1.1,0.9,1.1,0.9
96,'            ',115.0,1,1,1,1,1.0503406,-37.262267,1.1,0.9,1.1,0.9
97,'            ',115.0,1,1,1,1,1.051156,-35.323133,1.1,0.9,1.1,0.9
98,'            ',115.0,1,1,1,1,1.0425816,-36.648623,1.1,0.9,1.1,0.9
99,'            ',115.0,1,1,1,1,1.049028,-35.46644,1.1,0.9,1.1,0.9
100,'            ',115.0,1,1,1,1,1.0489468,-35.475796,1.1,0.9,1.1,0.9
101,'            ',115.0,1,1,1,1,1.0452729,-35.535205,1.1,0.9,1.1,0.9
102,'            ',115.0,1,1,1,1,1.04674,-35.471487,1.1,0.9,1.1,0.9
103,'            ',115.0,1,1,1,1,1.046645,-35.487062,1.1,0.9,1.1,0.9
104,'            ',115.0,1,1,1,1,1.0530648,-33.854117,1.1,0.9,1.1,0.9
105,'            ',115.0,1,1,1,1,1.0498602,-34.783616,1.1,0.9,1.1,0.9
106,'            ',115.0,1,1,1,1,1.0494121,-34.809948,1.1,0.9,1.1,0.9
107,'            ',230.0,1,1,1,1,1.0359818,-32.217749,1.1,0.9,1.1,0.9
108,'            ',115.0,1,1,1,1,1.0547063,-34.299548,1.1,0.9,1.1,0.9
109,'            ',230.0,1,1,1,1,1.035752,-32.252784,1.1,0.9,1.1,0.9
110,'            ',230.0,1,1,1,1,1.037267,-32.141507,1.1,0.9,1.1,0.9
111,'            ',115.0,1,1,1,1,1.0514392,-34.500209,1.1,0.9,1.1,0.9
112,'            ',115.0,1,1,1,1,1.0513023,-34.511173,1.1,0.9,1.1,0.9
113,'            ',115.0,1,1,1,1,1.0479793,-34.292432,1.1,0.9,1.1,0.9
114,'            ',115.0,1,1,1,1,1.0359778,-35.705547,1.1,0.9,1.1,0.9
115,'            ',230.0,1,1,1,1,1.046532,-32.970505,1.1,0.9,1.1,0.9
116,'            ',115.0,1,1,1,1,1.0511857,-35.075227,1.1,0.9,1.1,0.9
117,'            ',230.0,1,1,1,1,1.0469671,-32.935318,1.1,0.9,1.1,0.9
118,'            ',230.0,1,1,1,1,1.046532,-32.970505,1.1,0.9,1.1,0.9
119,'            ',115.0,1,1,1,1,1.0275149,-35.645068,1.1,0.9,1.1,0.9
120,'            ',115.0,1,1,1,1,1.0252697,-35.436421,1.1,0.9,1.1,0.9
121,'            ',115.0,1,1,1,1,1.0250962,-35.450912,1.1,0.9,1.1,0.9
122,'            ',115.0,1,1,1,1,1.0499649,-29.054342,1.1,0.9,1.1,0.9
123,'            ',115.0,1,1,1,1,1.0339113,-33.83347,1.1,0.9,1.1,0.9
124,'            ',115.0,1,1,1,1,1.0564266,-34.700759,1.1,0.9,1.1,0.9
125,'            ',115.0,1,1,1,1,1.0438367,-34.52482,1.1,0.9,1.1,0.9
126,'            ',115.0,1,1,1,1,1.0436096,-35.794298,1.1,0.9,1.1,0.9
127,'            ',115.0,1,1,1,1,1.0454552,-35.911264,1.1,0.9,1.1,0.9
128,'            ',115.0,1,1,1,1,1.0454983,-35.904099,1.1,0.9,1.1,0.9
129,'            ',115.0,1,1,1,1,1.0632724,-28.250863,1.1,0.9,1.1,0.9
130,'            ',230.0,1,1,1,1,1.0451762,-31.775733,1.1,0.9,1.1,0.9
131,'            ',115.0,1,1,1,1,1.059966,-34.599044,1.1,0.9,1.1,0.9
132,'            ',230.0,1,1,1,1,1.0461813,-31.73596,1.1,0.9,1.1,0.9
133,'            ',230.0,1,1,1,1,1.0311532,-38.561996,1.1,0.9,1.1,0.9
134,'            ',115.0,1,1,1,1,1.0570586,-38.110486,1.1,0.9,1.1,0.9
135,'            ',230.0,1,1,1,1,1.0310209,-38.578634,1.1,0.9,1.1,0.9
136,'            ',115.0,1,1,1,1,1.0524284,-37.92555,1.1,0.9,1.1,0.9
137,'            ',115.0,1,1,1,1,1.0500046,-38.184813,1.1,0.9,1.1,0.9
138,'            ',115.0,1,1,1,1,1.0500983,-38.176462,1.1,0.9,1.1,0.9
139,'            ',115.0,1,1,1,1,1.0446274,-37.862722,1.1,0.9,1.1,0.9
140,'            ',115.0,1,1,1,1,1.0525841,-34.373793,1.1,0.9,1.1,0.9
141,'            ',115.0,1,1,1,1,1.0433753,-35.011501,1.1,0.9,1.1,0.9
142,'            ',115.0,1,1,1,1,1.0393332,-26.120296,1.1,0.9,1.1,0.9
143,'            ',115.0,1,1,1,1,1.0436086,-28.558581,1.1,0.9,1.1,0.9
144,'            ',115.0,1,1,1,1,1.0433984,-29.256915,1.1,0.9,1.1,0.9
145,'            ',115.0,1,1,1,1,1.0433369,-29.267943,1.1,0.9,1.1,0.9
146,'            ',115.0,1,1,1,1,1.0434611,-29.245148,1.1,0.9,1.1,0.9
147,'            ',115.0,1,1,1,1,1.049097,-36.151403,1.1,0.9,1.1,0.9
148,'            ',115.0,1,1,1,1,1.0675496,-31.137828,1.1,0.9,1.1,0.9
149,'            ',115.0,1,1,1,1,1.0676693,-31.128381,1.1,0.9,1.1,0.9
150,'            ',115.0,1,1,1,1,1.0558897,-34.531817,1.1,0.9,1.1,0.9
151,'            ',115.0,1,1,1,1,1.0515182,-38.00109,1.1,0.9,1.1,0.9
152,'            ',115.0,1,1,1,1,1.0390982,-32.847921,1.1,0.9,1.1,0.9
153,'            ',115.0,1,1,1,1,0.99078011,-35.741995,1.1,0.9,1.1,0.9
154,'            ',115.0,1,1,1,1,1.0534077,-36.094214,1.1,0.9,1.1,0.9
155,'            ',115.0,1,1,1,1,1.0584079,-29.334791,1.1,0.9,1.1,0.9
156,'            ',115.0,1,1,1,1,1.0584594,-29.330685,1.1,0.9,1.1,0.9
157,'            ',115.0,1,1,1,1,1.0576195,-34.466686,1.1,0.9,1.1,0.9
158,'            ',115.0,1,1,1,1,1.0529596,-34.010188,1.1,0.9,1.1,0.9
159,'            ',115.0,1,1,1,1,1.0681083,-31.120484,1.1,0.9,1.1,0.9
160,'            ',230.0,1,1,1,1,1.0642326,-30.848971,1.1,0.9,1.1,0.9
161,'            ',115.0,1,1,1,1,1.0692209,-31.130458,1.1,0.9,1.1,0.9
162,'            ',230.0,1,1,1,1,1.0641035,-30.862516,1.1,0.9,1.1,0.9
163,'            ',230.0,1,1,1,1,1.0644108,-30.834199,1.1,0.9,1.1,0.9
164,'            ',115.0,1,1,1,1,1.0681425,-31.227845,1.1,0.9,1.1,0.9
165,'            ',115.0,1,1,1,1,1.0072201,-65.466455,1.1,0.9,1.1,0.9
166,'            ',115.0,1,1,1,1,1.0073073,-65.453924,1.1,0.9,1.1,0.9
167,'            ',115.0,1,1,1,1,1.0072201,-65.466455,1.1,0.9,1.1,0.9
168,'            ',115.0,1,1,1,1,1.0092846,-63.907047,1.1,0.9,1.1,0.9
169,'            ',115.0,1,1,1,1,1.0107644,-67.087326,1.1,0.9,1.1,0.9
170,'            ',115.0,1,1,1,1,1.007707,-66.672997,1.1,0.9,1.1,0.9
171,'            ',115.0,1,1,1,1,1.0075868,-66.685113,1.1,0.9,1.1,0.9
172,'            ',230.0,1,1,1,1,0.99537227,-57.283799,1.1,0.9,1.1,0.9
173,'            ',115.0,1,1,1,1,1.0081944,-62.719582,1.1,0.9,1.1,0.9
174,'            ',230.0,1,1,1,1,0.995,-57.293433,1.1,0.9,1.1,0.9
175,'            ',115.0,1,1,1,1,1.0460386,-33.08676,1.1,0.9,1.1,0.9
176,'            ',115.0,1,1,1,1,1.0430286,-31.897213,1.1,0.9,1.1,0.9
177,'            ',115.0,1,1,1,1,1.0429735,-31.90266,1.1,0.9,1.1,0.9
178,'            ',230.0,1,1,1,1,1.0552476,-29.241958,1.1,0.9,1.1,0.9
179,'            ',115.0,1,1,1,1,1.0561365,-29.787333,1.1,0.9,1.1,0.9
180,'            ',230.0,1,1,1,1,1.0552776,-29.229636,1.1,0.9,1.1,0.9
181,'            ',230.0,1,1,1,1,1.0552476,-29.241958,1.1,0.9,1.1,0.9
182,'            ',115.0,1,1,1,1,0.99497344,-47.182825,1.1,0.9,1.1,0.9
183,'            ',115.0,1,1,1,1,0.995,-47.177598,1.1,0.9,1.1,0.9
184,'            ',115.0,1,1,1,1,0.98406473,-50.95639,1.1,0.9,1.1,0.9
185,'            ',115.0,1,1,1,1,1.0174078,-44.827998,1.1,0.9,1.1,0.9
186,'            ',115.0,1,1,1,1,1.0143734,-44.930111,1.1,0.9,1.1,0.9
187,'            ',115.0,1,1,1,1,1.0134782,-45.07529,1.1,0.9,1.1,0.9
188,'            ',115.0,1,1,1,1,1.013344,-45.086813,1.1,0.9,1.1,0.9
189,'            ',115.0,1,1,1,1,1.0596523,-33.723807,1.1,0.9,1.1,0.9
190,'            ',115.0,1,1,1,1,1.0580848,-30.095803,1.1,0.9,1.1,0.9
191,'            ',115.0,1,1,1,1,1.0428675,-35.939344,1.1,0.9,1.1,0.9
192,'            ',115.0,1,1,1,1,1.0058268,-45.326874,1.1,0.9,1.1,0.9
193,'            ',115.0,1,1,1,1,0.995,-45.025447,1.1,0.9,1.1,0.9
194,'            ',230.0,1,1,1,1,1.0365,-42.981359,1.1,0.9,1.1,0.9
195,'            ',115.0,1,1,1,1,1.0213818,-44.475791,1.1,0.9,1.1,0.9
196,'            ',230.0,1,1,1,1,1.0355314,-42.818868,1.1,0.9,1.1,0.9
197,'            ',115.0,1,1,1,1,0.99957276,-45.660208,1.1,0.9,1.1,0.9
198,'            ',230.0,1,1,1,1,1.0099593,-44.598982,1.1,0.9,1.1,0.9
199,'            ',115.0,1,1,1,1,1.0075926,-45.305306,1.1,0.9,1.1,0.9
200,'            ',230.0,1,1,1,1,1.0097146,-44.620671,1.1,0.9,1.1,0.9
...
0 / END OF BUS DATA BEGIN LOAD DATA
1,'1',1,1,1,14.643,8.26,0.0,0.0,0.0,0.0,1,1,0
2,'1',1,1,1,8.375,4.068,0.0,0.0,0.0,0.0,1,1,0
3,'1',1,1,1,13.036,1.214,0.0,0.0,0.0,0.0,1,1,0
4,'1',1,1,1,5.713,1.374,0.0,0.0,0.0,0.0,1,1,0
6,'1',1,1,1,9.075,4.164,0.0,0.0,0.0,0.0,1,1,0
7,'1',1,1,1,18.142,3.243,0.0,0.0,0.0,0.0,1,1,0
8,'1',1,1,1,16.235,1.037,0.0,0.0,0.0,0.0,1,1,0
9,'1',1,1,1,13.326,5.852,0.0,0.0,0.0,0.0,1,1,0
10,'1',1,1,1,27.334,6.671,0.0,0.0,0.0,0.0,1,1,0
11,'1',1,1,1,10.078,0.59,0.0,0.0,0.0,0.0,1,1,0
14,'1',1,1,1,20.146,5.949,0.0,0.0,0.0,0.0,1,1,0
18,'1',1,1,1,23.135,1.915,0.0,0.0,0.0,0.0,1,1,0
21,'1',1,1,1,38.488,3.09,0.0,0.0,0.0,0.0,1,1,0
24,'1',1,1,1,21.213,8.05,0.0,0.0,0.0,0.0,1,1,0
25,'1',1,1,1,21.77,7.348,0.0,0.0,0.0,0.0,1,1,0
26,'1',1,1,1,8.805,1.249,0.0,0.0,0.0,0.0,1,1,0
30,'1',1,1,1,65.994,21.21,0.0,0.0,0.0,0.0,1,1,0
33,'1',1,1,1,43.166,9.889,0.0,0.0,0.0,0.0,1,1,0
34,'1',1,1,1,12.811,7.912,0.0,0.0,0.0,0.0,1,1,0
36,'1',1,1,1,12.029,3.418,0.0,0.0,0.0,0.0,1,1,0
39,'1',1,1,1,25.783,13.114,0.0,0.0,0.0,0.0,1,1,0
40,'1',1,1,1,21.46,3.965,0.0,0.0,0.0,0.0,1,1,0
41,'1',1,1,1,19.956,6.662,0.0,0.0,0.0,0.0,1,1,0
42,'1',1,1,1,21.46,1.432,0.0,0.0,0.0,0.0,1,1,0
43,'1',1,1,1,24.681,9.632,0.0,0.0,0.0,0.0,1,1,0
44,'1',1,1,1,19.75,5.204,0.0,0.0,0.0,0.0,1,1,0
45,'1',1,1,1,15.582,3.748,0.0,0.0,0.0,0.0,1,1,0
46,'1',1,1,1,17.064,3.828,0.0,0.0,0.0,0.0,1,1,0
47,'1',1,1,1,9.668,1.58,0.0,0.0,0.0,0.0,1,1,0
48,'1',1,1,1,16.056,2.892,0.0,0.0,0.0,0.0,1,1,0
49,'1',1,1,1,2.012,0.705,0.0,0.0,0.0,0.0,1,1,0
51,'1',1,1,1,16.791,4.511,0.0,0.0,0.0,0.0,1,1,0
52,'1',1,1,1,33.582,10.037,0.0,0.0,0.0,0.0,1,1,0
55,'1',1,1,1,32.03,3.999,0.0,0.0,0.0,0.0,1,1,0
57,'1',1,1,1,9.3,1.906,0.0,0.0,0.0,0.0,1,1,0
58,'1',1,1,1,26.192,15.25,0.0,0.0,0.0,0.0,1,1,0
59,'1',1,1,1,24.697,2.776,0.0,0.0,0.0,0.0,1,1,0
60,'1',1,1,1,14.174,7.495,0.0,0.0,0.0,0.0,1,1,0
61,'1',1,1,1,14.174,2.342,0.0,0.0,0.0,0.0,1,1,0
62,'1',1,1,1,31.885,5.642,0.0,0.0,0.0,0.0,1,1,0
66,'1',1,1,1,61.937,11.095,0.0,0.0,0.0,0.0,1,1,0
67,'1',1,1,1,17.546,1.926,0.0,0.0,0.0,0.0,1,1,0
69,'1',1,1,1,15.034,3.459,0.0,0.0,0.0,0.0,1,1,0
70,'1',1,1,1,17.831,5.948,0.0,0.0,0.0,0.0,1,1,0
71,'1',1,1,1,8.944,2.352,0.0,0.0,0.0,0.0,1,1,0
74,'1',1,1,1,17.669,0.775,0.0,0.0,0.0,0.0,1,1,0
76,'1',1,1,1,10.475,1.856,0.0,0.0,0.0,0.0,1,1,0
77,'1',1,1,1,30.662,0.399,0.0,0.0,0.0,0.0,1,1,0
78,'1',1,1,1,4.826,0.83,0.0,0.0,0.0,0.0,1,1,0
82,'1',1,1,1,78.255,6.858,0.0,0.0,0.0,0.0,1,1,0
84,'1',1,1,1,41.037,14.68,0.0,0.0,0.0,0.0,1,1,0
86,'1',1,1,1,5.202,1.258,0.0,0.0,0.0,0.0,1,1,0
88,'1',1,1,1,43.706,33.219,0.0,0.0,0.0,0.0,1,1,0
90,'1',1,1,1,31.778,10.974,0.0,0.0,0.0,0.0,1,1,0
94,'1',1,1,1,55.267,18.151,0.0,0.0,0.0,0.0,1,1,0
96,'1',1,1,1,7.156,2.91,0.0,0.0,0.0,0.0,1,1,0
97,'1',1,1,1,9.707,2.903,0.0,0.0,0.0,0.0,1,1,0
98,'1',1,1,1,21.365,8.03,0.0,0.0,0.0,0.0,1,1,0
100,'1',1,1,1,17.682,4.324,0.0,0.0,0.0,0.0,1,1,0
101,'1',1,1,1,12.66,1.765,0.0,0.0,0.0,0.0,1,1,0
103,'1',1,1,1,25.699,3.817,0.0,0.0,0.0,0.0,1,1,0
104,'1',1,1,1,43.826,4.704,0.0,0.0,0.0,0.0,1,1,0
106,'1',1,1,1,52.554,28.371,0.0,0.0,0.0,0.0,1,1,0
109,'1',1,1,1,66.217,8.383,0.0,0.0,0.0,0.0,1,1,0
111,'1',1,1,1,9.472,2.524,0.0,0.0,0.0,0.0,1,1,0
112,'1',1,1,1,21.905,8.613,0.0,0.0,0.0,0.0,1,1,0
113,'1',1,1,1,69.296,21.056,0.0,0.0,0.0,0.0,1,1,0
114,'1',1,1,1,75.351,27.237,0.0,0.0,0.0,0.0,1,1,0
116,'1',1,1,1,57.912,12.069,0.0,0.0,0.0,0.0,1,1,0
119,'1',1,1,1,17.039,8.009,0.0,0.0,0.0,0.0,1,1,0
121,'1',1,1,1,24.271,10.457,0.0,0.0,0.0,0.0,1,1,0
122,'1',1,1,1,8.646,1.371,0.0,0.0,0.0,0.0,1,1,0
123,'1',1,1,1,6.41,1.89,0.0,0.0,0.0,0.0,1,1,0
124,'1',1,1,1,28.181,7.227,0.0,0.0,0.0,0.0,1,1,0
125,'1',1,1,1,45.581,15.823,0.0,0.0,0.0,0.0,1,1,0
126,'1',1,1,1,28.276,10.194,0.0,0.0,0.0,0.0,1,1,0
127,'1',1,1,1,13.104,1.759,0.0,0.0,0.0,0.0,1,1,0
129,'1',1,1,1,7.468,8.276,0.0,0.0,0.0,0.0,1,1,0
131,'1',1,1,1,48.26,10.554,0.0,0.0,0.0,0.0,1,1,0
135,'1',1,1,1,30.735,5.383,0.0,0.0,0.0,0.0,1,1,0
136,'1',1,1,1,14.77,3.325,0.0,0.0,0.0,0.0,1,1,0
137,'1',1,1,1,14.525,4.686,0.0,0.0,0.0,0.0,1,1,0
139,'1',1,1,1,13.741,4.32,0.0,0.0,0.0,0.0,1,1,0
140,'1',1,1,1,11.07,6.31,0.0,0.0,0.0,0.0,1,1,0
141,'1',1,1,1,13.047,9.197,0.0,0.0,0.0,0.0,1,1,0
142,'1',1,1,1,7.246,5.43,0.0,0.0,0.0,0.0,1,1,0
143,'1',1,1,1,18.35,2.967,0.0,0.0,0.0,0.0,1,1,0
145,'1',1,1,1,20.131,1.683,0.0,0.0,0.0,0.0,1,1,0
147,'1',1,1,1,8.134,1.048,0.0,0.0,0.0,0.0,1,1,0
148,'1',1,1,1,19.194,6.68,0.0,0.0,0.0,0.0,1,1,0
150,'1',1,1,1,3.496,0.3,0.0,0.0,0.0,0.0,1,1,0
151,'1',1,1,1,11.854,2.515,0.0,0.0,0.0,0.0,1,1,0
152,'1',1,1,1,12.888,8.004,0.0,0.0,0.0,0.0,1,1,0
153,'1',1,1,1,7.459,1.751,0.0,0.0,0.0,0.0,1,1,0
154,'1',1,1,1,5.28,2.065,0.0,0.0,0.0,0.0,1,1,0
155,'1',1,1,1,8.046,3.371,0.0,0.0,0.0,0.0,1,1,0
157,'1',1,1,1,6.481,1.028,0.0,0.0,0.0,0.0,1,1,0
158,'1',1,1,1,6.203,2.564,0.0,0.0,0.0,0.0,1,1,0
159,'1',1,1,1,12.034,4.898,0.0,0.0,0.0,0.0,1,1,0
162,'1',1,1,1,23.793,7.342,0.0,0.0,0.0,0.0,1,1,0
164,'1',1,1,1,11.611,3.177,0.0,0.0,0.0,0.0,1,1,0
165,'1',1,1,1,20.47,2.541,0.0,0.0,0.0,0.0,1,1,0
168,'1',1,1,1,20.08,6.836,0.0,0.0,0.0,0.0,1,1,0
169,'1',1,1,1,20.08,6.224,0.0,0.0,0.0,0.0,1,1,0
171,'1',1,1,1,20.34,6.576,0.0,0.0,0.0,0.0,1,1,0
174,'1',1,1,1,20.08,6.732,0.0,0.0,0.0,0.0,1,1,0
175,'1',1,1,1,24.713,6.844,0.0,0.0,0.0,0.0,1,1,0
177,'1',1,1,1,9.64,2.568,0.0,0.0,0.0,0.0,1,1,0
179,'1',1,1,1,20.722,4.236,0.0,0.0,0.0,0.0,1,1,0
182,'1',1,1,1,8.801,0.51,0.0,0.0,0.0,0.0,1,1,0
184,'1',1,1,1,8.133,4.011,0.0,0.0,0.0,0.0,1,1,0
185,'1',1,1,1,14.522,6.364,0.0,0.0,0.0,0.0,1,1,0
186,'1',1,1,1,14.522,7.567,0.0,0.0,0.0,0.0,1,1,0
188,'1',1,1,1,20.162,8.619,0.0,0.0,0.0,0.0,1,1,0
189,'1',1,1,1,11.011,0.779,0.0,0.0,0.0,0.0,1,1,0
190,'1',1,1,1,5.265,1.338,0.0,0.0,0.0,0.0,1,1,0
191,'1',1,1,1,6.308,3.259,0.0,0.0,0.0,0.0,1,1,0
192,'1',1,1,1,18.433,3.35,0.0,0.0,0.0,0.0,1,1,0
193,'1',1,1,1,17.916,5.128,0.0,0.0,0.0,0.0,1,1,0
195,'1',1,1,1,56.85,19.102,0.0,0.0,0.0,0.0,1,1,0
197,'1',1,1,1,19.306,4.087,0.0,0.0,0.0,0.0,1,1,0
200,'1',1,1,1,35.597,13.085,0.0,0.0,0.0,0.0,1,1,0
202,'1',1,1,1,17.091,9.855,0.0,0.0,0.0,0.0,1,1,0
204,'1',1,1,1,27.783,11.867,0.0,0.0,0.0,0.0,1,1,0
205,'1',1,1,1,22.695,2.733,0.0,0.0,0.0,0.0,1,1,0
206,'1',1,1,1,22.117,12.624,0.0,0.0,0.0,0.0,1,1,0
209,'1',1,1,1,68.419,34.169,0.0,0.0,0.0,0.0,1,1,0
211,'1',1,1,1,22.433,8.973,0.0,0.0,0.0,0.0,1,1,0
213,'1',1,1,1,3.524,1.132,0.0,0.0,0.0,0.0,1,1,0
214,'1',1,1,1,3.271,0.478,0.0,0.0,0.0,0.0,1,1,0
215,'1',1,1,1,8.1,3.426,0.0,0.0,0.0,0.0,1,1,0
219,'1',1,1,1,15.832,3.518,0.0,0.0,0.0,0.0,1,1,0
220,'1',1,1,1,2.9,0.583,0.0,0.0,0.0,0.0,1,1,0
221,'1',1,1,1,10.232,2.444,0.0,0.0,0.0,0.0,1,1,0
223,'1',1,1,1,5.47,2.358,0.0,0.0,0.0,0.0,1,1,0
224,'1',1,1,1,4.322,1.212,0.0,0.0,0.0,0.0,1,1,0
225,'1',1,1,1,12.209,1.63,0.0,0.0,0.0,0.0,1,1,0
227,'1',1,1,1,8.995,1.918,0.0,0.0,0.0,0.0,1,1,0
228,'1',1,1,1,20.004,4.433,0.0,0.0,0.0,0.0,1,1,0
229,'1',1,1,1,12.416,4.19,0.0,0.0,0.0,0.0,1,1,0
230,'1',1,1,1,35.554,4.762,0.0,0.0,0.0,0.0,1,1,0
231,'1',1,1,1,13.991,2.342,0.0,0.0,0.0,0.0,1,1,0
232,'1',1,1,1,18.352,4.543,0.0,0.0,0.0,0.0,1,1,0
233,'1',1,1,1,11.207,2.637,0.0,0.0,0.0,0.0,1,1,0
237,'1',1,1,1,32.996,11.861,0.0,0.0,0.0,0.0,1,1,0
239,'1',1,1,1,11.426,4.262,0.0,0.0,0.0,0.0,1,1,0
241,'1',1,1,1,8.77,1.851,0.0,0.0,0.0,0.0,1,1,0
242,'1',1,1,1,4.029,2.091,0.0,0.0,0.0,0.0,1,1,0
243,'1',1,1,1,5.354,6.61,0.0,0.0,0.0,0.0,1,1,0
244,'1',1,1,1,7.939,2.305,0.0,0.0,0.0,0.0,1,1,0
247,'1',1,1,1,23.252,8.661,0.0,0.0,0.0,0.0,1,1,0
249,'1',1,1,1,7.807,1.477,0.0,0.0,0.0,0.0,1,1,0
251,'1',1,1,1,6.526,1.494,0.0,0.0,0.0,0.0,1,1,0
254,'1',1,1,1,46.3,4.251,0.0,0.0,0.0,0.0,1,1,0
256,'1',1,1,1,17.554,1.128,0.0,0.0,0.0,0.0,1,1,0
258,'1',1,1,1,41.981,17.61,0.0,0.0,0.0,0.0,1,1,0
259,'1',1,1,1,21.221,11.503,0.0,0.0,0.0,0.0,1,1,0
260,'1',1,1,1,2.863,1.871,0.0,0.0,0.0,0.0,1,1,0
263,'1',1,1,1,47.466,14.224,0.0,0.0,0.0,0.0,1,1,0
264,'1',1,1,1,23.733,4.667,0.0,0.0,0.0,0.0,1,1,0
265,'1',1,1,1,27.852,5.051,0.0,0.0,0.0,0.0,1,1,0
267,'1',1,1,1,23.733,6.675,0.0,0.0,0.0,0.0,1,1,0
270,'1',1,1,1,24.195,10.983,0.0,0.0,0.0,0.0,1,1,0
271,'1',1,1,1,38.457,9.776,0.0,0.0,0.0,0.0,1,1,0
274,'1',1,1,1,10.916,5.497,0.0,0.0,0.0,0.0,1,1,0
276,'1',1,1,1,4.486,0.85,0.0,0.0,0.0,0.0,1,1,0
277,'1',1,1,1,10.685,1.026,0.0,0.0,0.0,0.0,1,1,0
278,'1',1,1,1,22.873,13.634,0.0,0.0,0.0,0.0,1,1,0
279,'1',1,1,1,7.972,0.915,0.0,0.0,0.0,0.0,1,1,0
280,'1',1,1,1,22.822,7.63,0.0,0.0,0.0,0.0,1,1,0
281,'1',1,1,1,45.644,16.392,0.0,0.0,0.0,0.0,1,1,0
282,'1',1,1,1,13.917,3.567,0.0,0.0,0.0,0.0,1,1,0
283,'1',1,1,1,47.89,13.885,0.0,0.0,0.0,0.0,1,1,0
284,'1',1,1,1,23.944,6.907,0.0,0.0,0.0,0.0,1,1,0
286,'1',1,1,1,46.766,9.245,0.0,0.0,0.0,0.0,1,1,0
290,'1',1,1,1,16.598,0.95,0.0,0.0,0.0,0.0,1,1,0
292,'1',1,1,1,29.971,21.791,0.0,0.0,0.0,0.0,1,1,0
296,'1',1,1,1,56.008,6.862,0.0,0.0,0.0,0.0,1,1,0
298,'1',1,1,1,28.004,19.774,0.0,0.0,0.0,0.0,1,1,0
300,'1',1,1,1,28.004,5.363,0.0,0.0,0.0,0.0,1,1,0
301,'1',1,1,1,8.826,3.729,0.0,0.0,0.0,0.0,1,1,0
303,'1',1,1,1,10.943,2.065,0.0,0.0,0.0,0.0,1,1,0
305,'1',1,1,1,9.439,1.227,0.0,0.0,0.0,0.0,1,1,0
306,'1',1,1,1,5.416,2.884,0.0,0.0,0.0,0.0,1,1,0
307,'1',1,1,1,7.087,1.122,0.0,0.0,0.0,0.0,1,1,0
308,'1',1,1,1,8.492,3.461,0.0,0.0,0.0,0.0,1,1,0
309,'1',1,1,1,23.16,1.115,0.0,0.0,0.0,0.0,1,1,0
313,'1',1,1,1,24.569,14.509,0.0,0.0,0.0,0.0,1,1,0
314,'1',1,1,1,23.16,2.49,0.0,0.0,0.0,0.0,1,1,0
316,'1',1,1,1,23.16,2.525,0.0,0.0,0.0,0.0,1,1,0
317,'1',1,1,1,7.811,1.865,0.0,0.0,0.0,0.0,1,1,0
319,'1',1,1,1,5.178,2.637,0.0,0.0,0.0,0.0,1,1,0
321,'1',1,1,1,7.204,1.228,0.0,0.0,0.0,0.0,1,1,0
322,'1',1,1,1,14.137,4.185,0.0,0.0,0.0,0.0,1,1,0
325,'1',1,1,1,27.392,3.586,0.0,0.0,0.0,0.0,1,1,0
327,'1',1,1,1,20.077,8.633,0.0,0.0,0.0,0.0,1,1,0
329,'1',1,1,1,28.597,7.23,0.0,0.0,0.0,0.0,1,1,0
331,'1',1,1,1,18.889,10.619,0.0,0.0,0.0,0.0,1,1,0
332,'1',1,1,1,9.115,2.061,0.0,0.0,0.0,0.0,1,1,0
336,'1',1,1,1,18.897,9.209,0.0,0.0,0.0,0.0,1,1,0
...
0 / END OF LOAD DATA BEGIN FIXED SHUNT DATA
27,'1',1,0.0,-53.157
194,'1',1,0.0,142.113
252,'1',1,0.0,26.332
371,'1',1,0.0,16.849
383,'1',1,0.0,43.909
473,'1',1,0.0,361.618
509,'1',1,0.0,17.606
567,'1',1,0.0,50.945
590,'1',1,0.0,27.613
644,'1',1,0.0,9.25
682,'1',1,0.0,16.893
748,'1',1,0.0,57.346
759,'1',1,0.0,207.948
834,'1',1,0.0,32.604
842,'1',1,0.0,81.47
898,'1',1,0.0,21.124
902,'1',1,0.0,10.192
1020,'1',1,0.0,17.994
1050,'1',1,0.0,9.438
1074,'1',1,0.0,7.614
1116,'1',1,0.0,295.308
1120,'1',1,0.0,11.529
1185,'1',1,0.0,13.982
1277,'1',1,0.0,80.498
1296,'1',1,0.0,161.284
1300,'1',1,0.0,39.649
1320,'1',1,0.0,13.905
1336,'1',1,0.0,28.54
1343,'1',1,0.0,150.33
1423,'1',1,0.0,20.617
1444,'1',1,0.0,27.624
1472,'1',1,0.0,16.387
1502,'1',1,0.0,26.539
1567,'1',1,0.0,70.823
1600,'1',1,0.0,58.147
1608,'1',1,0.0,15.02
1737,'1',1,0.0,34.559
1749,'1',1,0.0,41.751
1794,'1',1,0.0,197.666
1816,'1',1,0.0,111.094
1822,'1',1,0.0,35.295
1888,'1',1,0.0,342.969
1933,'1',1,0.0,24.61
1977,'1',1,0.0,149.896
2001,'1',1,0.0,75.83
2136,'1',1,0.0,30.772
2144,'1',1,0.0,32.976
2189,'1',1,0.0,20.818
2199,'1',1,0.0,83.448
2986,'1',1,0.0,-58.19
3117,'1',1,0.0,-58.419
3198,'1',1,0.0,34.794
3209,'1',1,0.0,19.107
3306,'1',1,0.0,39.776
3385,'1',1,0.0,30.709
3401,'1',1,0.0,-12.192
3428,'1',1,0.0,290.712
3447,'1',1,0.0,-133.02
3499,'1',1,0.0,34.921
3803,'1',1,0.0,74.151
3811,'1',1,0.0,-64.067
3892,'1',1,0.0,-25.161
4030,'1',1,0.0,13.478
4565,'1',1,0.0,9.101
4629,'1',1,0.0,34.284
4799,'1',1,0.0,170.938
5065,'1',1,0.0,18.503
5716,'1',1,0.0,10.498
6039,'1',1,0.0,30.758
6059,'1',1,0.0,-42.46
6249,'1',1,0.0,-75.846
6496,'1',1,0.0,10.781
6565,'1',1,0.0,1.773
6819,'1',1,0.0,8.957
6901,'1',1,0.0,-7.89
7143,'1',1,0.0,16.039
7459,'1',1,0.0,39.986
7654,'1',1,0.0,101.853
7674,'1',1,0.0,22.018
7697,'1',1,0.0,7.208
7853,'1',1,0.0,11.534
8032,'1',1,0.0,53.109
8172,'1',1,0.0,4.335
8208,'1',1,0.0,24.897
8215,'1',1,0.0,42.856
8233,'1',1,0.0,69.122
8259,'1',1,0.0,20.499
8264,'1',1,0.0,38.452
8882,'1',1,0.0,80.0
9050,'1',1,0.0,-32.33
9614,'1',1,0.0,-2.85
0 / END OF FIXED SHUNT DATA BEGIN GENERATOR DATA
2275,'1',29.867464,-6.2063927,48.61,-10.6,1.036,0,95.5,0.0,1.0,0.0,0.0,1.0,1,1.0,95.5,29.823,1,1.0,0,1.0,0,1.0,0,1.0,0,1.0
2276,'1',39.623464,-4.9738896,48.61,-10.6,1.036,0,95.5,0.0,1.0,0.0,0.0,1.0,1,1.0,95.5,39.579,1,1.0,0,1.0,0,1.0,0,1.0,0,1.0
2277,'1',11.829464,-4.5206633,48.61,-10.6,1.036,0,95.5,0.0,1.0,0.0,0.0,1.0,1,1.0,95.5,11.785,1,1.0,0,1.0,0,1.0,0,1.0,0,1.0
2278,'1',11.367464,-5.4865709,48.61,-10.6,1.036,0,95.5,0.0,1.0,0.0,0.0,1.0,1,1.0,95.5,11.323,1,1.0,0,1.0,0,1.0,0,1.0,0,1.0
2279,'1',22.599464,-5.2811853,48.61,-10.6,1.036,0,95.5,0.0,1.0,0.0,0.0,1.0,1,1.0,95.5,22.555,1,1.0,0,1.0,0,1.0,0,1.0,0,1.0
2280,'1',19.193464,-4.6727956,48.61,-10.6,1.036,0,95.5,0.0,1.0,0.0,0.0,1.0,1,1.0,95.5,19.149,1,1.0,0,1.0,0,1.0,0,1.0,0,1.0
2285,'1',201.0,-11.44478,42.813,-28.944,1.04,0,201.0,0.0,1.0,0.0,0.0,1.0,1,1.0,201.0,58.433,1,1.0,0,1.0,0,1.0,0,1.0,0,1.0
2289,'1',7.6,-0.927,3.542,-0.927,1.0427104,0,7.6,0.0,1.0,0.0,0.0,1.0,1,1.0,7.6,2.682,1,1.0,0,1.0,0,1.0,0,1.0,0,1.0
2289,'2',4.7,-0.573,2.19,-0.573,1.0427104,0,4.7,0.0,1.0,0.0,0.0,1.0,1,1.0,4.7,1.507,1,1.0,0,1.0,0,1.0,0,1.0,0,1.0
2290,'1',1.733,-0.211,0.808,-0.211,1.0455493,0,1.73,0.0,1.0,0.0,0.0,1.0,1,1.0,1.733,0.79,1,1.0,0,1.0,0,1.0,0,1.0,0,1.0
2290,'2',1.733,-0.211,0.808,-0.211,1.0455493,0,1.73,0.0,1.0,0.0,0.0,1.0,1,1.0,1.733,0.337,1,1.0,0,1.0,0,1.0,0,1.0,0,1.0
2291,'1',1.733,-0.211,0.808,-0.211,1.0455322,0,1.73,0.0,1.0,0.0,0.0,1.0,1,1.0,1.733,0.583,1,1.0,0,1.0,0,1.0,0,1.0,0,1.0
2291,'2',1.733,-0.211,0.808,-0.211,1.0455322,0,1.73,0.0,1.0,0.0,0.0,1.0,1,1.0,1.733,0.849,1,1.0,0,1.0,0,1.0,0,1.0,0,1.0
2292,'1',1.733,-0.211,0.808,-0.211,1.044655,0,1.73,0.0,1.0,0.0,0.0,1.0,1,1.0,1.733,0.316,1,1.0,0,1.0,0,1.0,0,1.0,0,1.0
2293,'1',1.733,-0.211,0.808,-0.211,1.0429847,0,1.73,0.0,1.0,0.0,0.0,1.0,1,1.0,1.733,0.545,1,1.0,0,1.0,0,1.0,0,1.0,0,1.0
2294,'1',1.6,-0.195,0.746,-0.195,1.045265,0,1.6,0.0,1.0,0.0,0.0,1.0,1,1.0,1.6,0.427,1,1.0,0,1.0,0,1.0,0,1.0,0,1.0
2294,'2',1.6,-0.195,0.746,-0.195,1.045265,0,1.6,0.0,1.0,0.0,0.0,1.0,1,1.0,1.6,0.429,1,1.0,0,1.0,0,1.0,0,1.0,0,1.0
2295,'1',1.5,-0.183,0.699,-0.183,1.0440252,0,1.5,0.0,1.0,0.0,0.0,1.0,1,1.0,1.5,0.455,1,1.0,0,1.0,0,1.0,0,1.0,0,1.0
2295,'2',1.4,-0.171,0.652,-0.171,1.0440252,0,1.4,0.0,1.0,0.0,0.0,1.0,1,1.0,1.4,0.161,1,1.0,0,1.0,0,1.0,0,1.0,0,1.0
2296,'1',0.5,-0.061,0.233,-0.061,1.0353097,0,0.5,0.0,1.0,0.0,0.0,1.0,1,1.0,0.5,0.238,1,1.0,0,1.0,0,1.0,0,1.0,0,1.0
2302,'1',111.33888,133.22598,149.646,-32.634,1.0355,0,294.0,0.0,1.0,0.0,0.0,1.0,1,1.0,294.0,111.202,1,1.0,0,1.0,0,1.0,0,1.0,0,1.0
2303,'1',87.851884,49.314856,149.646,-32.634,1.031,0,294.0,0.0,1.0,0.0,0.0,1.0,1,1.0,294.0,87.715,1,1.0,0,1.0,0,1.0,0,1.0,0,1.0
2304,'1',73.303884,105.47945,149.646,-32.634,1.0355,0,294.0,0.0,1.0,0.0,0.0,1.0,1,1.0,294.0,73.167,1,1.0,0,1.0,0,1.0,0,1.0,0,1.0
2310,'1',274.29378,-26.790019,290.038,-75.933,1.04,0,622.4,0.0,1.0,0.0,0.0,1.0,1,1.0,622.4,274.004,1,1.0,0,1.0,0,1.0,0,1.0,0,1.0
2315,'1',60.336515,48.287535,57.262,-12.488,1.0135,0,112.5,0.0,1.0,0.0,0.0,1.0,1,1.0,112.5,50.341,1,1.0,0,1.0,0,1.0,0,1.0,0,1.0
2316,'1',97.356915,47.89563,57.262,-12.488,1.0135,0,112.5,0.0,1.0,0.0,0.0,1.0,1,1.0,112.5,36.523,1,1.0,0,1.0,0,1.0,0,1.0,0,1.0
2317,'1',47.527379,29.225668,57.262,-12.488,1.0135,0,112.5,0.0,1.0,0.0,0.0,1.0,1,1.0,112.5,47.475,1,1.0,0,1.0,0,1.0,0,1.0,0,1.0
2318,'1',46.319115,45.808994,57.262,-12.488,1.0135,0,112.5,0.0,1.0,0.0,0.0,1.0,1,1.0,112.5,15.094,1,1.0,0,1.0,0,1.0,0,1.0,0,1.0
2323,'1',52.41496,-15.967903,34.293,-23.184,1.04,0,161.0,0.0,1.0,0.0,0.0,1.0,1,1.0,161.0,25.175,1,1.0,0,1.0,0,1.0,0,1.0,0,1.0
2327,'1',101.2,-0.92876524,21.556,-14.573,1.04,0,101.2,0.0,1.0,0.0,0.0,1.0,1,1.0,101.2,39.642,1,1.0,0,1.0,0,1.0,0,1.0,0,1.0
2332,'1',74.991453,-3.2625295,93.317,-20.35,1.0625,0,183.33,0.0,1.0,0.0,0.0,1.0,1,1.0,183.333,54.251,1,1.0,0,1.0,0,1.0,0,1.0,0,1.0
2333,'1',117.53148,11.209573,93.317,-20.35,1.0625,0,183.33,0.0,1.0,0.0,0.0,1.0,1,1.0,183.333,85.229,1,1.0,0,1.0,0,1.0,0,1.0,0,1.0
2334,'1',106.24585,-3.5193264,93.317,-20.35,1.0625,0,183.33,0.0,1.0,0.0,0.0,1.0,1,1.0,183.333,69.843,1,1.0,0,1.0,0,1.0,0,1.0,0,1.0
2340,'1',188.11516,13.488749,336.452,-88.084,1.04,0,722.0,0.0,1.0,0.0,0.0,1.0,1,1.0,722.0,187.779,1,1.0,0,1.0,0,1.0,0,1.0,0,1.0
2341,'1',295.77216,15.345873,336.452,-88.084,1.04,0,722.0,0.0,1.0,0.0,0.0,1.0,1,1.0,722.0,295.436,1,1.0,0,1.0,0,1.0,0,1.0,0,1.0
2346,'1',13.720624,-4.6934567,45.505,-9.923,1.036,0,89.4,0.0,1.0,0.0,0.0,1.0,1,1.0,89.4,13.679,1,1.0,0,1.0,0,1.0,0,1.0,0,1.0
2347,'1',20.970624,-6.4126998,45.505,-9.923,1.036,0,89.4,0.0,1.0,0.0,0.0,1.0,1,1.0,89.4,20.929,1,1.0,0,1.0,0,1.0,0,1.0,0,1.0
2348,'1',18.396624,-4.3312417,45.505,-9.923,1.036,0,89.4,0.0,1.0,0.0,0.0,1.0,1,1.0,89.4,18.355,1,1.0,0,1.0,0,1.0,0,1.0,0,1.0
2349,'1',36.919624,-4.3671953,45.505,-9.923,1.036,0,89.4,0.0,1.0,0.0,0.0,1.0,1,1.0,89.4,36.878,1,1.0,0,1.0,0,1.0,0,1.0,0,1.0
2350,'1',25.615624,-6.4154448,45.505,-9.923,1.036,0,89.4,0.0,1.0,0.0,0.0,1.0,1,1.0,89.4,25.574,1,1.0,0,1.0,0,1.0,0,1.0,0,1.0
2351,'1',41.326624,-4.6370032,45.505,-9.923,1.036,0,89.4,0.0,1.0,0.0,0.0,1.0,1,1.0,89.4,41.285,1,1.0,0,1.0,0,1.0,0,1.0,0,1.0
2352,'1',0.1142002,-0.041124625,0.221,-0.048,1.0400529,0,0.43,0.0,1.0,0.0,0.0,1.0,1,1.0,0.433,0.114,1,1.0,0,1.0,0,1.0,0,1.0,0,1.0
2353,'1',0.1742002,-0.041666933,0.221,-0.048,1.0370522,0,0.43,0.0,1.0,0.0,0.0,1.0,1,1.0,0.433,0.174,1,1.0,0,1.0,0,1.0,0,1.0,0,1.0
2353,'2',0.2112002,-0.041666933,0.221,-0.048,1.0370522,0,0.43,0.0,1.0,0.0,0.0,1.0,1,1.0,0.433,0.211,1,1.0,0,1.0,0,1.0,0,1.0,0,1.0
2358,'1',2.3613424,-1.0995625,8.029,-1.751,1.04,0,15.77,0.0,1.0,0.0,0.0,1.0,1,1.0,15.775,2.354,1,1.0,0,1.0,0,1.0,0,1.0,0,1.0
2358,'2',7.8843424,-1.0995625,8.029,-1.751,1.04,0,15.77,0.0,1.0,0.0,0.0,1.0,1,1.0,15.775,7.877,1,1.0,0,1.0,0,1.0,0,1.0,0,1.0
2359,'1',10.365933,-1.751,8.029,-1.751,1.0405486,0,15.77,0.0,1.0,0.0,0.0,1.0,1,1.0,15.775,5.353,1,1.0,0,1.0,0,1.0,0,1.0,0,1.0
2360,'1',13.574333,5.3817914,8.029,-1.751,1.045,0,15.77,0.0,1.0,0.0,0.0,1.0,1,1.0,15.775,4.735,1,1.0,0,1.0,0,1.0,0,1.0,0,1.0
2364,'1',71.801607,-19.404225,90.856,-19.814,1.0361805,0,178.5,0.0,1.0,0.0,0.0,1.0,1,1.0,178.5,21.473,1,1.0,0,1.0,0,1.0,0,1.0,0,1.0
2365,'1',111.52661,-18.57501,90.856,-19.814,1.036,0,178.5,0.0,1.0,0.0,0.0,1.0,1,1.0,178.5,49.538,1,1.0,0,1.0,0,1.0,0,1.0,0,1.0
2366,'1',76.429207,-12.59266,90.856,-19.814,1.036,0,178.5,0.0,1.0,0.0,0.0,1.0,1,1.0,178.5,56.891,1,1.0,0,1.0,0,1.0,0,1.0,0,1.0
2371,'1',39.283325,1.5463965,123.891,-27.017,1.0495,0,243.4,0.0,1.0,0.0,0.0,1.0,1,1.0,243.4,39.17,1,1.0,0,1.0,0,1.0,0,1.0,0,1.0
2372,'1',78.839325,1.5782405,123.891,-27.017,1.0495,0,243.4,0.0,1.0,0.0,0.0,1.0,1,1.0,243.4,78.726,1,1.0,0,1.0,0,1.0,0,1.0,0,1.0
2373,'1',112.98932,0.94891371,123.891,-27.017,1.0495,0,243.4,0.0,1.0,0.0,0.0,1.0,1,1.0,243.4,112.876,1,1.0,0,1.0,0,1.0,0,1.0,0,1.0
2376,'1',2.8934043,1.756,1.756,-0.383,1.0394009,0,3.45,0.0,1.0,0.0,0.0,1.0,1,1.0,3.45,0.659,1,1.0,0,1.0,0,1.0,0,1.0,0,1.0
2376,'2',3.0588043,1.756,1.756,-0.383,1.0394009,0,3.45,0.0,1.0,0.0,0.0,1.0,1,1.0,3.45,1.486,1,1.0,0,1.0,0,1.0,0,1.0,0,1.0
2376,'3',4.3171251,2.545,2.545,-0.555,1.0394009,0,5.0,0.0,1.0,0.0,0.0,1.0,1,1.0,5.0,1.574,1,1.0,0,1.0,0,1.0,0,1.0,0,1.0
2376,'4',40.259721,24.432,24.432,-5.328,1.0394009,0,48.0,0.0,1.0,0.0,0.0,1.0,1,1.0,48.0,9.187,1,1.0,0,1.0,0,1.0,0,1.0,0,1.0
2379,'1',39.6,45.481447,148.609,0.0,1.04,0,39.6,0.0,1.0,0.0,0.0,1.0,1,1.0,39.6,13.389,1,1.0,0,1.0,0,1.0,0,1.0,0,1.0
2384,'1',45.734653,51.484296,66.17,-14.43,1.009,0,130.0,0.0,1.0,0.0,0.0,1.0,1,1.0,130.0,29.611,1,1.0,0,1.0,0,1.0,0,1.0,0,1.0
2385,'1',35.835527,55.358272,66.17,-14.43,1.009,0,130.0,0.0,1.0,0.0,0.0,1.0,1,1.0,130.0,35.775,1,1.0,0,1.0,0,1.0,0,1.0,0,1.0
2390,'1',40.035586,-16.989425,79.353,-17.305,1.0616494,0,155.9,0.0,1.0,0.0,0.0,1.0,1,1.0,155.9,39.963,1,1.0,0,1.0,0,1.0,0,1.0,0,1.0
2391,'1',49.961586,-17.086279,79.353,-17.305,1.0589793,0,155.9,0.0,1.0,0.0,0.0,1.0,1,1.0,155.9,49.889,1,1.0,0,1.0,0,1.0,0,1.0,0,1.0
2392,'1',21.102586,-17.069535,79.353,-17.305,1.0593397,0,155.9,0.0,1.0,0.0,0.0,1.0,1,1.0,155.9,21.03,1,1.0,0,1.0,0,1.0,0,1.0,0,1.0
2397,'1',77.477692,-6.13178,335.986,-87.962,1.04,0,721.0,0.0,1.0,0.0,0.0,1.0,1,1.0,721.0,77.142,1,1.0,0,1.0,0,1.0,0,1.0,0,1.0
2401,'1',3.2,1.229,1.229,-0.157,1.039,0,3.2,0.0,1.0,0.0,0.0,1.0,1,1.0,3.2,0.842,1,1.0,0,1.0,0,1.0,0,1.0,0,1.0
2401,'2',3.2,1.229,1.229,-0.157,1.039,0,3.2,0.0,1.0,0.0,0.0,1.0,1,1.0,3.2,1.397,1,1.0,0,1.0,0,1.0,0,1.0,0,1.0
2401,'3',3.2,1.229,1.229,-0.157,1.039,0,3.2,0.0,1.0,0.0,0.0,1.0,1,1.0,3.2,1.238,1,1.0,0,1.0,0,1.0,0,1.0,0,1.0
2401,'4',33.0,12.672,12.672,-1.617,1.039,0,33.0,0.0,1.0,0.0,0.0,1.0,1,1.0,33.0,7.526,1,1.0,0,1.0,0,1.0,0,1.0,0,1.0
2401,'5',33.0,12.672,12.672,-1.617,1.039,0,33.0,0.0,1.0,0.0,0.0,1.0,1,1.0,33.0,7.945,1,1.0,0,1.0,0,1.0,0,1.0,0,1.0
2404,'1',27.471101,-4.0934017,16.241,-10.98,1.0455,0,76.25,0.0,1.0,0.0,0.0,1.0,1,1.0,76.25,15.232,1,1.0,0,1.0,0,1.0,0,1.0,0,1.0
2404,'2',32.953501,-4.0934017,16.241,-10.98,1.0455,0,76.25,0.0,1.0,0.0,0.0,1.0,1,1.0,76.25,22.085,1,1.0,0,1.0,0,1.0,0,1.0,0,1.0
2409,'1',3.6730366,2.6751836,14.252,-3.108,1.033,0,28.0,0.0,1.0,0.0,0.0,1.0,1,1.0,28.0,3.66,1,1.0,0,1.0,0,1.0,0,1.0,0,1.0
2409,'2',23.258621,2.6751836,14.252,-3.108,1.033,0,28.0,0.0,1.0,0.0,0.0,1.0,1,1.0,28.0,4.228,1,1.0,0,1.0,0,1.0,0,1.0,0,1.0
2410,'1',20.997021,-3.108,14.252,-3.108,1.0434697,0,28.0,0.0,1.0,0.0,0.0,1.0,1,1.0,28.0,8.52,1,1.0,0,1.0,0,1.0,0,1.0,0,1.0
2411,'1',9.6230366,0.07138707,14.252,-3.108,1.04,0,28.0,0.0,1.0,0.0,0.0,1.0,1,1.0,28.0,9.61,1,1.0,0,1.0,0,1.0,0,1.0,0,1.0
2411,'2',3.7060366,0.07138707,14.252,-3.108,1.04,0,28.0,0.0,1.0,0.0,0.0,1.0,1,1.0,28.0,3.693,1,1.0,0,1.0,0,1.0,0,1.0,0,1.0
2412,'1',4.0820366,-2.9057715,14.252,-3.108,1.04,0,28.0,0.0,1.0,0.0,0.0,1.0,1,1.0,28.0,4.069,1,1.0,0,1.0,0,1.0,0,1.0,0,1.0
2416,'1',25.20956,-1.6982614,14.405,-3.141,1.04,0,28.3,0.0,1.0,0.0,0.0,1.0,1,1.0,28.3,12.782,1,1.0,0,1.0,0,1.0,0,1.0,0,1.0
2416,'2',24.27776,-1.6982614,14.405,-3.141,1.04,0,28.3,0.0,1.0,0.0,0.0,1.0,1,1.0,28.3,8.123,1,1.0,0,1.0,0,1.0,0,1.0,0,1.0
2417,'1',25.45796,-1.4124231,14.405,-3.141,1.04,0,28.3,0.0,1.0,0.0,0.0,1.0,1,1.0,28.3,14.024,1,1.0,0,1.0,0,1.0,0,1.0,0,1.0
2417,'2',23.32156,-1.4124231,14.405,-3.141,1.04,0,28.3,0.0,1.0,0.0,0.0,1.0,1,1.0,28.3,3.342,1,1.0,0,1.0,0,1.0,0,1.0,0,1.0
2418,'1',24.58236,-1.7001043,14.405,-3.141,1.04,0,28.3,0.0,1.0,0.0,0.0,1.0,1,1.0,28.3,9.646,1,1.0,0,1.0,0,1.0,0,1.0,0,1.0
2418,'2',24.09916,-1.7001043,14.405,-3.141,1.04,0,28.3,0.0,1.0,0.0,0.0,1.0,1,1.0,28.3,7.23,1,1.0,0,1.0,0,1.0,0,1.0,0,1.0
2423,'1',50.575966,30.408801,31.049,-6.771,1.0217327,0,61.0,0.0,1.0,0.0,0.0,1.0,1,1.0,61.0,8.738,1,1.0,0,1.0,0,1.0,0,1.0,0,1.0
2424,'1',20.044361,-2.664,12.216,-2.664,1.040127,0,24.0,0.0,1.0,0.0,0.0,1.0,1,1.0,24.0,4.166,1,1.0,0,1.0,0,1.0,0,1.0,0,1.0
2428,'1',112.30978,117.43649,126.571,-27.602,1.065,0,248.67,0.0,1.0,0.0,0.0,1.0,1,1.0,248.667,112.194,1,1.0,0,1.0,0,1.0,0,1.0,0,1.0
2429,'1',89.087779,67.8126,126.571,-27.602,1.065,0,248.67,0.0,1.0,0.0,0.0,1.0,1,1.0,248.667,88.972,1,1.0,0,1.0,0,1.0,0,1.0,0,1.0
2430,'1',83.535779,86.597226,126.571,-27.602,1.065,0,248.67,0.0,1.0,0.0,0.0,1.0,1,1.0,248.667,83.42,1,1.0,0,1.0,0,1.0,0,1.0,0,1.0
2433,'1',12.366624,1.9704597,45.505,-9.923,1.044,0,89.4,0.0,1.0,0.0,0.0,1.0,1,1.0,89.4,12.325,1,1.0,0,1.0,0,1.0,0,1.0,0,1.0
2433,'2',15.305624,1.9704597,45.505,-9.923,1.044,0,89.4,0.0,1.0,0.0,0.0,1.0,1,1.0,89.4,15.264,1,1.0,0,1.0,0,1.0,0,1.0,0,1.0
2433,'3',23.961624,1.9704597,45.505,-9.923,1.044,0,89.4,0.0,1.0,0.0,0.0,1.0,1,1.0,89.4,23.92,1,1.0,0,1.0,0,1.0,0,1.0,0,1.0
2433,'4',36.361624,1.9704597,45.505,-9.923,1.044,0,89.4,0.0,1.0,0.0,0.0,1.0,1,1.0,89.4,36.32,1,1.0,0,1.0,0,1.0,0,1.0,0,1.0
2433,'5',10.771624,1.9704597,45.505,-9.923,1.044,0,89.4,0.0,1.0,0.0,0.0,1.0,1,1.0,89.4,10.73,1,1.0,0,1.0,0,1.0,0,1.0,0,1.0
2441,'1',108.60748,85.412156,85.682,-18.685,1.0203754,0,168.33,0.0,1.0,0.0,0.0,1.0,1,1.0,168.333,53.326,1,1.0,0,1.0,0,1.0,0,1.0,0,1.0
2442,'1',48.743373,85.559709,85.682,-18.685,1.0220684,0,168.33,0.0,1.0,0.0,0.0,1.0,1,1.0,168.333,48.665,1,1.0,0,1.0,0,1.0,0,1.0,0,1.0
2443,'1',75.487373,85.590704,85.682,-18.685,1.0222322,0,168.33,0.0,1.0,0.0,0.0,1.0,1,1.0,168.333,75.409,1,1.0,0,1.0,0,1.0,0,1.0,0,1.0
2449,'1',134.91476,167.95337,169.088,-35.226,1.029,0,317.35,0.0,1.0,0.0,0.0,1.0,1,1.0,317.35,134.767,1,1.0,0,1.0,0,1.0,0,1.0,0,1.0
2450,'1',113.86676,100.634,100.634,-35.226,1.0183148,0,317.35,0.0,1.0,0.0,0.0,1.0,1,1.0,317.35,113.719,1,1.0,0,1.0,0,1.0,0,1.0,0,1.0
2455,'1',116.14289,22.295478,67.086,-14.63,1.032,0,131.8,0.0,1.0,0.0,0.0,1.0,1,1.0,131.8,53.208,1,1.0,0,1.0,0,1.0,0,1.0,0,1.0
2456,'1',59.283365,18.499164,67.086,-14.63,1.0365,0,131.8,0.0,1.0,0.0,0.0,1.0,1,1.0,131.8,59.222,1,1.0,0,1.0,0,1.0,0,1.0,0,1.0
2459,'1',7.424243,-2.442,11.198,-2.442,1.0404811,0,22.0,0.0,1.0,0.0,0.0,1.0,1,1.0,22.0,7.414,1,1.0,0,1.0,0,1.0,0,1.0,0,1.0
2459,'2',4.514243,-2.442,11.198,-2.442,1.0404811,0,22.0,0.0,1.0,0.0,0.0,1.0,1,1.0,22.0,4.504,1,1.0,0,1.0,0,1.0,0,1.0,0,1.0
2459,'3',9.965243,-2.442,11.198,-2.442,1.0404811,0,22.0,0.0,1.0,0.0,0.0,1.0,1,1.0,22.0,9.955,1,1.0,0,1.0,0,1.0,0,1.0,0,1.0
2464,'1',27.477013,17.458804,49.212,-10.732,1.054,0,96.68,0.0,1.0,0.0,0.0,1.0,1,1.0,96.683,27.432,1,1.0,0,1.0,0,1.0,0,1.0,0,1.0
2465,'1',28.252013,12.725025,49.212,-10.732,1.054,0,96.68,0.0,1.0,0.0,0.0,1.0,1,1.0,96.683,28.207,1,1.0,0,1.0,0,1.0,0,1.0,0,1.0
2466,'1',30.842013,11.137483,49.212,-10.732,1.054,0,96.68,0.0,1.0,0.0,0.0,1.0,1,1.0,96.683,30.797,1,1.0,0,1.0,0,1.0,0,1.0,0,1.0
2467,'1',30.389013,13.20286,49.212,-10.732,1.054,0,96.68,0.0,1.0,0.0,0.0,1.0,1,1.0,96.683,30.344,1,1.0,0,1.0,0,1.0,0,1.0,0,1.0
2468,'1',32.982013,24.552027,49.212,-10.732,1.054,0,96.68,0.0,1.0,0.0,0.0,1.0,1,1.0,96.683,32.937,1,1.0,0,1.0,0,1.0,0,1.0,0,1.0
2469,'1',43.117013,17.329299,49.212,-10.732,1.054,0,96.68,0.0,1.0,0.0,0.0,1.0,1,1.0,96.683,43.072,1,1.0,0,1.0,0,1.0,0,1.0,0,1.0
2473,'1',63.356612,31.170676,38.76,-8.453,1.045,0,76.15,0.0,1.0,0.0,0.0,1.0,1,1.0,76.15,12.006,1,1.0,0,1.0,0,1.0,0,1.0,0,1.0
2473,'2',39.557612,31.170676,38.76,-8.453,1.045,0,76.15,0.0,1.0,0.0,0.0,1.0,1,1.0,76.15,22.291,1,1.0,0,1.0,0,1.0,0,1.0,0,1.0
2473,'3',68.160212,31.170676,38.76,-8.453,1.045,0,76.15,0.0,1.0,0.0,0.0,1.0,1,1.0,76.15,36.024,1,1.0,0,1.0,0,1.0,0,1.0,0,1.0
2473,'4',63.023812,31.170676,38.76,-8.453,1.045,0,76.15,0.0,1.0,0.0,0.0,1.0,1,1.0,76.15,10.342,1,1.0,0,1.0,0,1.0,0,1.0,0,1.0
2477,'1',10.723692,19.098109,19.342,-4.218,1.0417721,0,38.0,0.0,1.0,0.0,0.0,1.0,1,1.0,38.0,10.706,1,1.0,0,1.0,0,1.0,0,1.0,0,1.0
2481,'1',170.2,4.7387535,36.253,-24.509,1.045,0,170.2,0.0,1.0,0.0,0.0,1.0,1,1.0,170.2,59.987,1,1.0,0,1.0,0,1.0,0,1.0,0,1.0
2486,'1',140.85972,83.633356,114.627,-24.997,1.0675,0,225.2,0.0,1.0,0.0,0.0,1.0,1,1.0,225.2,101.015,1,1.0,0,1.0,0,1.0,0,1.0,0,1.0
2487,'1',143.44172,114.12249,114.627,-24.997,1.0666161,0,225.2,0.0,1.0,0.0,0.0,1.0,1,1.0,225.2,67.765,1,1.0,0,1.0,0,1.0,0,1.0,0,1.0
2488,'1',126.68152,109.4081,114.627,-24.997,1.0675,0,225.2,0.0,1.0,0.0,0.0,1.0,1,1.0,225.2,80.164,1,1.0,0,1.0,0,1.0,0,1.0,0,1.0
2493,'1',150.0,13.788077,31.95,-21.6,1.0445,0,150.0,0.0,1.0,0.0,0.0,1.0,1,1.0,150.0,53.398,1,1.0,0,1.0,0,1.0,0,1.0,0,1.0
2499,'1',180.0,-25.856442,38.34,-25.92,1.0423136,0,180.0,0.0,1.0,0.0,0.0,1.0,1,1.0,180.0,54.851,1,1.0,0,1.0,0,1.0,0,1.0,0,1.0
2500,'1',9.0,1.917,1.917,-1.296,1.0353054,0,9.0,0.0,1.0,0.0,0.0,1.0,1,1.0,9.0,2.266,1,1.0,0,1.0,0,1.0,0,1.0,0,1.0
2506,'1',105.16005,32.090405,82.153,-17.915,1.047,0,161.4,0.0,1.0,0.0,0.0,1.0,1,1.0,161.4,78.585,1,1.0,0,1.0,0,1.0,0,1.0,0,1.0
2507,'1',52.480146,21.600331,82.153,-17.915,1.047,0,161.4,0.0,1.0,0.0,0.0,1.0,1,1.0,161.4,52.405,1,1.0,0,1.0,0,1.0,0,1.0,0,1.0
2508,'1',51.900146,43.724991,82.153,-17.915,1.0515,0,161.4,0.0,1.0,0.0,0.0,1.0,1,1.0,161.4,51.825,1,1.0,0,1.0,0,1.0,0,1.0,0,1.0
2509,'1',60.814146,28.41371,82.153,-17.915,1.047,0,161.4,0.0,1.0,0.0,0.0,1.0,1,1.0,161.4,60.739,1,1.0,0,1.0,0,1.0,0,1.0,0,1.0
2510,'1',74.315146,21.836845,82.153,-17.915,1.047,0,161.4,0.0,1.0,0.0,0.0,1.0,1,1.0,161.4,74.24,1,1.0,0,1.0,0,1.0,0,1.0,0,1.0
2515,'1',100.53702,30.259888,104.973,-22.892,1.054,0,206.23,0.0,1.0,0.0,0.0,1.0,1,1.0,206.233,100.441,1,1.0,0,1.0,0,1.0,0,1.0,0,1.0
2516,'1',90.971019,29.770619,104.973,-22.892,1.054,0,206.23,0.0,1.0,0.0,0.0,1.0,1,1.0,206.233,90.875,1,1.0,0,1.0,0,1.0,0,1.0,0,1.0
2517,'1',96.488019,37.998897,104.973,-22.892,1.054,0,206.23,0.0,1.0,0.0,0.0,1.0,1,1.0,206.233,96.392,1,1.0,0,1.0,0,1.0,0,1.0,0,1.0
2521,'1',67.6,11.341011,14.399,-9.734,1.054,0,67.6,0.0,1.0,0.0,0.0,1.0,1,1.0,67.6,10.419,1,1.0,0,1.0,0,1.0,0,1.0,0,1.0
2526,'1',50.369167,1.3556381,78.895,-17.205,1.045,0,155.0,0.0,1.0,0.0,0.0,1.0,1,1.0,155.0,50.297,1,1.0,0,1.0,0,1.0,0,1.0,0,1.0
2527,'1',20.289167,2.274026,78.895,-17.205,1.045,0,155.0,0.0,1.0,0.0,0.0,1.0,1,1.0,155.0,20.217,1,1.0,0,1.0,0,1.0,0,1.0,0,1.0
2531,'1',30.0,0.0,0.0,0.0,1.0400197,0,30.0,0.0,1.0,0.0,0.0,1.0,1,1.0,30.0,3.39,1,1.0,0,1.0,0,1.0,0,1.0,0,1.0
2531,'2',1.4,0.0,0.0,0.0,1.0400197,0,1.4,0.0,1.0,0.0,0.0,1.0,1,1.0,1.4,0.549,1,1.0,0,1.0,0,1.0,0,1.0,0,1.0
2536,'1',52.174636,21.869793,30.031,-6.549,1.065,0,59.0,0.0,1.0,0.0,0.0,1.0,1,1.0,59.0,24.736,1,1.0,0,1.0,0,1.0,0,1.0,0,1.0
2537,'1',49.763636,13.81907,30.031,-6.549,1.065,0,59.0,0.0,1.0,0.0,0.0,1.0,1,1.0,59.0,12.681,1,1.0,0,1.0,0,1.0,0,1.0,0,1.0
2538,'1',50.776036,13.988792,30.031,-6.549,1.065,0,59.0,0.0,1.0,0.0,0.0,1.0,1,1.0,59.0,17.743,1,1.0,0,1.0,0,1.0,0,1.0,0,1.0
2539,'1',52.529636,19.063747,30.031,-6.549,1.065,0,59.0,0.0,1.0,0.0,0.0,1.0,1,1.0,59.0,26.511,1,1.0,0,1.0,0,1.0,0,1.0,0,1.0
2544,'1',67.156292,-4.3910231,81.364,-21.301,1.04,0,174.6,0.0,1.0,0.0,0.0,1.0,1,1.0,174.6,67.075,1,1.0,0,1.0,0,1.0,0,1.0,0,1.0
2545,'1',42.340292,-4.9077872,81.364,-21.301,1.04,0,174.6,0.0,1.0,0.0,0.0,1.0,1,1.0,174.6,42.259,1,1.0,0,1.0,0,1.0,0,1.0,0,1.0
2548,'1',6.39899,-2.5758379,14.201,-3.097,1.0453445,0,27.9,0.0,1.0,0.0,0.0,1.0,1,1.0,27.9,6.386,1,1.0,0,1.0,0,1.0,0,1.0,0,1.0
2549,'1',3.51399,-2.8806281,14.201,-3.097,1.04683,0,27.9,0.0,1.0,0.0,0.0,1.0,1,1.0,27.9,3.501,1,1.0,0,1.0,0,1.0,0,1.0,0,1.0
2549,'2',13.18699,-2.8806281,14.201,-3.097,1.04683,0,27.9,0.0,1.0,0.0,0.0,1.0,1,1.0,27.9,13.174,1,1.0,0,1.0,0,1.0,0,1.0,0,1.0
2549,'3',9.51199,-2.8806281,14.201,-3.097,1.04683,0,27.9,0.0,1.0,0.0,0.0,1.0,1,1.0,27.9,9.499,1,1.0,0,1.0,0,1.0,0,1.0,0,1.0
2549,'4',11.53399,-2.8806281,14.201,-3.097,1.04683,0,27.9,0.0,1.0,0.0,0.0,1.0,1,1.0,27.9,11.521,1,1.0,0,1.0,0,1.0,0,1.0,0,1.0
2549,'5',10.52399,-2.8806281,14.201,-3.097,1.04683,0,27.9,0.0,1.0,0.0,0.0,1.0,1,1.0,27.9,10.511,1,1.0,0,1.0,0,1.0,0,1.0,0,1.0
2554,'1',46.788412,16.094849,67.137,-14.641,1.0585,0,131.9,0.0,1.0,0.0,0.0,1.0,1,1.0,131.9,46.727,1,1.0,0,1.0,0,1.0,0,1.0,0,1.0
2555,'1',65.414412,26.090134,67.137,-14.641,1.0585,0,131.9,0.0,1.0,0.0,0.0,1.0,1,1.0,131.9,65.353,1,1.0,0,1.0,0,1.0,0,1.0,0,1.0
2556,'1',27.859412,18.915174,67.137,-14.641,1.0585,0,131.9,0.0,1.0,0.0,0.0,1.0,1,1.0,131.9,27.798,1,1.0,0,1.0,0,1.0,0,1.0,0,1.0
2557,'1',32.821412,19.563286,67.137,-14.641,1.0585,0,131.9,0.0,1.0,0.0,0.0,1.0,1,1.0,131.9,32.76,1,1.0,0,1.0,0,1.0,0,1.0,0,1.0
2563,'1',1161.785,441.71451,447.12,-99.63,1.0125426,0,1215.0,0.0,1.0,0.0,0.0,1.0,1,1.0,1215.0,542.749,1,1.0,0,1.0,0,1.0,0,1.0,0,1.0
2564,'1',1174.839,443.26661,447.12,-99.63,1.0100097,0,1215.0,0.0,1.0,0.0,0.0,1.0,1,1.0,1215.0,196.854,1,1.0,0,1.0,0,1.0,0,1.0,0,1.0
2567,'1',62.558082,-7.0446015,36.648,-7.992,1.0380137,0,72.0,0.0,1.0,0.0,0.0,1.0,1,1.0,72.0,24.623,1,1.0,0,1.0,0,1.0,0,1.0,0,1.0
2567,'2',64.132682,-7.0446015,36.648,-7.992,1.0380137,0,72.0,0.0,1.0,0.0,0.0,1.0,1,1.0,72.0,32.496,1,1.0,0,1.0,0,1.0,0,1.0,0,1.0
2567,'3',59.352282,-7.0446015,36.648,-7.992,1.0380137,0,72.0,0.0,1.0,0.0,0.0,1.0,1,1.0,72.0,8.594,1,1.0,0,1.0,0,1.0,0,1.0,0,1.0
2567,'4',61.814682,-7.0446015,36.648,-7.992,1.0380137,0,72.0,0.0,1.0,0.0,0.0,1.0,1,1.0,72.0,20.906,1,1.0,0,1.0,0,1.0,0,1.0,0,1.0
2567,'5',57.270682,-7.0446015,36.648,-7.992,1.0380137,0,72.0,0.0,1.0,0.0,0.0,1.0,1,1.0,72.0,30.986,1,1.0,0,1.0,0,1.0,0,1.0,0,1.0
2567,'6',61.742082,-7.0446015,36.648,-7.992,1.0380137,0,72.0,0.0,1.0,0.0,0.0,1.0,1,1.0,72.0,20.543,1,1.0,0,1.0,0,1.0,0,1.0,0,1.0
2573,'1',270.65206,-20.540628,59.214,-40.032,1.036,0,278.0,0.0,1.0,0.0,0.0,1.0,1,1.0,278.0,124.493,1,1.0,0,1.0,0,1.0,0,1.0,0,1.0
2578,'1',150.0,-0.7065618,31.95,-21.6,1.04,0,150.0,0.0,1.0,0.0,0.0,1.0,1,1.0,150.0,35.937,1,1.0,0,1.0,0,1.0,0,1.0,0,1.0
2583,'1',162.73141,59.104914,165.527,-36.097,1.0475,0,325.2,0.0,1.0,0.0,0.0,1.0,1,1.0,325.2,162.58,1,1.0,0,1.0,0,1.0,0,1.0,0,1.0
2584,'1',66.58441,76.657301,165.527,-36.097,1.0475,0,325.2,0.0,1.0,0.0,0.0,1.0,1,1.0,325.2,66.433,1,1.0,0,1.0,0,1.0,0,1.0,0,1.0
2588,'1',106.43345,-12.800556,49.523,-33.48,1.04,0,232.5,0.0,1.0,0.0,0.0,1.0,1,1.0,232.5,56.736,1,1.0,0,1.0,0,1.0,0,1.0,0,1.0
2591,'1',36.29668,-11.592,17.146,-11.592,1.0440824,0,80.5,0.0,1.0,0.0,0.0,1.0,1,1.0,80.5,25.199,1,1.0,0,1.0,0,1.0,0,1.0,0,1.0
2594,'1',39.910661,-11.133906,16.955,-11.462,1.0611448,0,79.6,0.0,1.0,0.0,0.0,1.0,1,1.0,79.6,29.942,1,1.0,0,1.0,0,1.0,0,1.0,0,1.0
2598,'1',6.7074282,-2.2099822,10.307,-2.248,1.0445331,0,20.25,0.0,1.0,0.0,0.0,1.0,1,1.0,20.25,6.698,1,1.0,0,1.0,0,1.0,0,1.0,0,1.0
2598,'2',4.1724282,-2.2099822,10.307,-2.248,1.0445331,0,20.25,0.0,1.0,0.0,0.0,1.0,1,1.0,20.25,4.163,1,1.0,0,1.0,0,1.0,0,1.0,0,1.0
2604,'1',100.35392,-0.93990723,42.6,-28.8,1.048,0,200.0,0.0,1.0,0.0,0.0,1.0,1,1.0,200.0,75.326,1,1.0,0,1.0,0,1.0,0,1.0,0,1.0
2611,'1',112.00942,52.725062,199.426,-43.49,1.0045,0,391.8,0.0,1.0,0.0,0.0,1.0,1,1.0,391.8,111.827,1,1.0,0,1.0,0,1.0,0,1.0,0,1.0
2612,'1',189.12742,69.186113,199.426,-43.49,1.0045,0,391.8,0.0,1.0,0.0,0.0,1.0,1,1.0,391.8,188.945,1,1.0,0,1.0,0,1.0,0,1.0,0,1.0
2613,'1',101.41742,60.206566,199.426,-43.49,1.0045,0,391.8,0.0,1.0,0.0,0.0,1.0,1,1.0,391.8,101.235,1,1.0,0,1.0,0,1.0,0,1.0,0,1.0
2617,'1',22.0,-1.0125398,8.448,-1.078,1.0450713,0,22.0,0.0,1.0,0.0,0.0,1.0,1,1.0,22.0,2.376,1,1.0,0,1.0,0,1.0,0,1.0,0,1.0
2617,'2',22.0,-1.0125398,8.448,-1.078,1.0450713,0,22.0,0.0,1.0,0.0,0.0,1.0,1,1.0,22.0,6.487,1,1.0,0,1.0,0,1.0,0,1.0,0,1.0
2623,'1',228.00329,-13.78793,307.56,-80.52,1.04,0,660.0,0.0,1.0,0.0,0.0,1.0,1,1.0,660.0,227.696,1,1.0,0,1.0,0,1.0,0,1.0,0,1.0
2624,'1',113.90029,-22.317156,307.56,-80.52,1.04,0,660.0,0.0,1.0,0.0,0.0,1.0,1,1.0,660.0,113.593,1,1.0,0,1.0,0,1.0,0,1.0,0,1.0
2625,'1',177.31329,-26.739977,307.56,-80.52,1.04,0,660.0,0.0,1.0,0.0,0.0,1.0,1,1.0,660.0,177.006,1,1.0,0,1.0,0,1.0,0,1.0,0,1.0
2630,'1',159.45697,-40.936767,61.472,-41.558,1.0478134,0,288.6,0.0,1.0,0.0,0.0,1.0,1,1.0,288.6,123.187,1,1.0,0,1.0,0,1.0,0,1.0,0,1.0
2635,'1',122.50661,43.297093,51.333,-34.704,1.058,0,241.0,0.0,1.0,0.0,0.0,1.0,1,1.0,241.0,92.743,1,1.0,0,1.0,0,1.0,0,1.0,0,1.0
2638,'1',17.567377,-8.467,12.524,-8.467,1.0451396,0,58.8,0.0,1.0,0.0,0.0,1.0,1,1.0,58.8,7.225,1,1.0,0,1.0,0,1.0,0,1.0,0,1.0
2644,'1',51.633316,35.033654,35.278,-23.85,1.0120118,0,165.63,0.0,1.0,0.0,0.0,1.0,1,1.0,165.625,23.039,1,1.0,0,1.0,0,1.0,0,1.0,0,1.0
2645,'1',80.214116,35.22481,35.278,-23.85,1.0089424,0,165.63,0.0,1.0,0.0,0.0,1.0,1,1.0,165.625,58.765,1,1.0,0,1.0,0,1.0,0,1.0,0,1.0
2646,'1',68.990916,35.159781,35.278,-23.85,1.0084063,0,165.63,0.0,1.0,0.0,0.0,1.0,1,1.0,165.625,44.736,1,1.0,0,1.0,0,1.0,0,1.0,0,1.0
2647,'1',48.406116,-23.85,35.278,-23.85,1.0402117,0,165.63,0.0,1.0,0.0,0.0,1.0,1,1.0,165.625,19.005,1,1.0,0,1.0,0,1.0,0,1.0,0,1.0
2651,'1',38.491671,-14.812933,80.541,-17.564,1.0405,0,158.23,0.0,1.0,0.0,0.0,1.0,1,1.0,158.233,38.418,1,1.0,0,1.0,0,1.0,0,1.0,0,1.0
2652,'1',66.814671,-17.410018,80.541,-17.564,1.0440195,0,158.23,0.0,1.0,0.0,0.0,1.0,1,1.0,158.233,66.741,1,1.0,0,1.0,0,1.0,0,1.0,0,1.0
2653,'1',24.670671,-13.735156,80.541,-17.564,1.0405,0,158.23,0.0,1.0,0.0,0.0,1.0,1,1.0,158.233,24.597,1,1.0,0,1.0,0,1.0,0,1.0,0,1.0
2657,'1',65.894097,-18.216,26.945,-18.216,1.0304893,0,126.5,0.0,1.0,0.0,0.0,1.0,1,1.0,126.5,50.669,1,1.0,0,1.0,0,1.0,0,1.0,0,1.0
2662,'1',116.58612,-11.634083,41.961,-28.368,1.0405,0,197.0,0.0,1.0,0.0,0.0,1.0,1,1.0,197.0,96.368,1,1.0,0,1.0,0,1.0,0,1.0,0,1.0
2665,'1',37.583609,-11.261,16.657,-11.261,1.0619333,0,78.2,0.0,1.0,0.0,0.0,1.0,1,1.0,78.2,27.384,1,1.0,0,1.0,0,1.0,0,1.0,0,1.0
2669,'1',86.235562,20.705132,93.537,-20.398,1.0585,0,183.77,0.0,1.0,0.0,0.0,1.0,1,1.0,183.767,86.15,1,1.0,0,1.0,0,1.0,0,1.0,0,1.0
2670,'1',125.77466,42.016493,93.537,-20.398,1.0585,0,183.77,0.0,1.0,0.0,0.0,1.0,1,1.0,183.767,72.086,1,1.0,0,1.0,0,1.0,0,1.0,0,1.0
2671,'1',99.328658,27.680804,93.537,-20.398,1.0585,0,183.77,0.0,1.0,0.0,0.0,1.0,1,1.0,183.767,21.216,1,1.0,0,1.0,0,1.0,0,1.0,0,1.0
2677,'1',29.865754,34.609771,94.844,-20.683,1.0525,0,186.33,0.0,1.0,0.0,0.0,1.0,1,1.0,186.333,29.779,1,1.0,0,1.0,0,1.0,0,1.0,0,1.0
2678,'1',88.367754,44.931282,94.844,-20.683,1.0525,0,186.33,0.0,1.0,0.0,0.0,1.0,1,1.0,186.333,88.281,1,1.0,0,1.0,0,1.0,0,1.0,0,1.0
2679,'1',69.510754,49.878184,94.844,-20.683,1.0525,0,186.33,0.0,1.0,0.0,0.0,1.0,1,1.0,186.333,69.424,1,1.0,0,1.0,0,1.0,0,1.0,0,1.0
2683,'1',283.2,-40.148689,60.322,-40.781,1.0311433,0,283.2,0.0,1.0,0.0,0.0,1.0,1,1.0,283.2,79.964,1,1.0,0,1.0,0,1.0,0,1.0,0,1.0
2688,'1',203.0,33.482325,43.239,-29.232,1.0045,0,203.0,0.0,1.0,0.0,0.0,1.0,1,1.0,203.0,98.9,1,1.0,0,1.0,0,1.0,0,1.0,0,1.0
2691,'1',23.260196,17.728211,21.887,-4.773,1.0385,0,43.0,0.0,1.0,0.0,0.0,1.0,1,1.0,43.0,5.001,1,1.0,0,1.0,0,1.0,0,1.0,0,1.0
2692,'1',21.50202,-4.773,21.887,-4.773,1.0421251,0,43.0,0.0,1.0,0.0,0.0,1.0,1,1.0,43.0,21.482,1,1.0,0,1.0,0,1.0,0,1.0,0,1.0
...
0 / END OF GENERATOR DATA BEGIN BRANCH DATA
1,10,'1',0.0087,0.04508,0.03012,161.0,161.0,161.0,0.0,0.0,0.0,0.0,1,1,0.0,1,1.0,0,1.0,0,1.0,0,1.0
2,5,'1',0.04168,0.15499,0.06378,172.6,172.6,172.6,0.0,0.0,0.0,0.0,1,1,0.0,1,1.0,0,1.0,0,1.0,0,1.0
2,2971,'1',0.0113,0.0609,0.01935,179.1,179.1,179.1,0.0,0.0,0.0,0.0,1,1,0.0,1,1.0,0,1.0,0,1.0,0,1.0
3,32,'1',0.02285,0.1258,0.02312,129.8,129.8,129.8,0.0,0.0,0.0,0.0,1,1,0.0,1,1.0,0,1.0,0,1.0,0,1.0
4,5,'1',0.00021,0.0011,0.0,99999.0,99999.0,99999.0,0.0,0.0,0.0,0.0,1,1,0.0,1,1.0,0,1.0,0,1.0,0,1.0
5,47,'1',0.01779,0.09175,0.1489,168.8,168.8,168.8,0.0,0.0,0.0,0.0,1,1,0.0,1,1.0,0,1.0,0,1.0,0,1.0
6,7,'1',0.01146,0.06161,0.01521,118.9,118.9,118.9,0.0,0.0,0.0,0.0,1,1,0.0,1,1.0,0,1.0,0,1.0,0,1.0
6,3839,'1',0.06146,0.23913,0.02814,132.4,132.4,132.4,0.0,0.0,0.0,0.0,1,1,0.0,1,1.0,0,1.0,0,1.0,0,1.0
7,3142,'1',0.01943,0.08611,0.03098,154.4,154.4,154.4,0.0,0.0,0.0,0.0,1,1,0.0,1,1.0,0,1.0,0,1.0,0,1.0
8,9,'1',0.04045,0.19503,0.02577,143.7,143.7,143.7,0.0,0.0,0.0,0.0,1,1,0.0,1,1.0,0,1.0,0,1.0,0,1.0
8,34,'1',0.03445,0.15102,0.02567,125.9,125.9,125.9,0.0,0.0,0.0,0.0,1,1,0.0,1,1.0,0,1.0,0,1.0,0,1.0
8,2798,'1',0.03757,0.171,0.015,165.0,165.0,165.0,0.0,0.0,0.0,0.0,1,1,0.0,1,1.0,0,1.0,0,1.0,0,1.0
10,11,'1',0.03459,0.13093,0.02825,179.5,179.5,179.5,0.0,0.0,0.0,0.0,1,1,0.0,1,1.0,0,1.0,0,1.0,0,1.0
12,14,'1',0.00024,0.00103,0.0,99999.0,99999.0,99999.0,0.0,0.0,0.0,0.0,1,1,0.0,1,1.0,0,1.0,0,1.0,0,1.0
12,15,'1',0.00028,0.00118,0.0,99999.0,99999.0,99999.0,0.0,0.0,0.0,0.0,1,1,0.0,1,1.0,0,1.0,0,1.0,0,1.0
13,11,'1',0.0115,0.05155,0.00995,186.6,186.6,186.6,0.0,0.0,0.0,0.0,1,1,0.0,1,1.0,0,1.0,0,1.0,0,1.0
13,25,'1',0.03053,0.12823,0.03996,170.2,170.2,170.2,0.0,0.0,0.0,0.0,1,1,0.0,1,1.0,0,1.0,0,1.0,0,1.0
15,2405,'1',0.00382,0.03136,0.07527,564.4,564.4,564.4,0.0,0.0,0.0,0.0,1,1,0.0,1,1.0,0,1.0,0,1.0,0,1.0
15,3118,'1',0.00577,0.05823,0.28363,602.8,602.8,602.8,0.0,0.0,0.0,0.0,1,1,0.0,1,1.0,0,1.0,0,1.0,0,1.0
16,18,'1',0.00029,0.00105,0.0,99999.0,99999.0,99999.0,0.0,0.0,0.0,0.0,1,1,0.0,1,1.0,0,1.0,0,1.0,0,1.0
16,19,'1',0.00021,0.00106,0.0,99999.0,99999.0,99999.0,0.0,0.0,0.0,0.0,1,1,0.0,1,1.0,0,1.0,0,1.0,0,1.0
17,70,'1',0.02482,0.12658,0.04798,148.2,148.2,148.2,0.0,0.0,0.0,0.0,1,1,0.0,1,1.0,0,1.0,0,1.0,0,1.0
19,3259,'1',0.01233,0.10016,0.25445,532.2,532.2,532.2,0.0,0.0,0.0,0.0,1,1,0.0,1,1.0,0,1.0,0,1.0,0,1.0
20,22,'1',0.00021,0.00114,0.0,99999.0,99999.0,99999.0,0.0,0.0,0.0,0.0,1,1,0.0,1,1.0,0,1.0,0,1.0,0,1.0
20,23,'1',0.00028,0.00106,0.0,99999.0,99999.0,99999.0,0.0,0.0,0.0,0.0,1,1,0.0,1,1.0,0,1.0,0,1.0,0,1.0
21,9,'1',0.0449,0.16501,0.01666,108.5,108.5,108.5,0.0,0.0,0.0,0.0,1,1,0.0,1,1.0,0,1.0,0,1.0,0,1.0
22,3615,'1',0.00793,0.06747,0.23868,597.9,597.9,597.9,0.0,0.0,0.0,0.0,1,1,0.0,1,1.0,0,1.0,0,1.0,0,1.0
24,32,'1',0.01064,0.03316,0.00869,147.4,147.4,147.4,0.0,0.0,0.0,0.0,1,1,0.0,1,1.0,0,1.0,0,1.0,0,1.0
25,24,'1',0.00921,0.03545,0.00947,146.1,146.1,146.1,0.0,0.0,0.0,0.0,1,1,0.0,1,1.0,0,1.0,0,1.0,0,1.0
25,43,'1',0.00594,0.0302,0.03786,175.1,175.1,175.1,0.0,0.0,0.0,0.0,1,1,0.0,1,1.0,0,1.0,0,1.0,0,1.0
26,2572,'1',0.0208,0.09668,0.02411,135.6,135.6,135.6,0.0,0.0,0.0,0.0,1,1,0.0,1,1.0,0,1.0,0,1.0,0,1.0
26,3467,'1',0.05134,0.25172,0.03633,160.0,160.0,160.0,0.0,0.0,0.0,0.0,1,1,0.0,1,1.0,0,1.0,0,1.0,0,1.0
27,30,'1',0.00029,0.00101,0.0,99999.0,99999.0,99999.0,0.0,0.0,0.0,0.0,1,1,0.0,1,1.0,0,1.0,0,1.0,0,1.0
27,2585,'1',0.00049,0.00859,1.20744,2730.0,2730.0,2730.0,0.0,0.0,0.0,0.0,1,1,0.0,1,1.0,0,1.0,0,1.0,0,1.0
27,3124,'1',0.001,0.01944,2.12114,2885.3,2885.3,2885.3,0.0,0.0,0.0,0.0,1,1,0.0,1,1.0,0,1.0,0,1.0,0,1.0
28,31,'1',0.0003,0.00103,0.0,99999.0,99999.0,99999.0,0.0,0.0,0.0,0.0,1,1,0.0,1,1.0,0,1.0,0,1.0,0,1.0
29,3557,'1',0.00452,0.02384,0.01438,170.8,170.8,170.8,0.0,0.0,0.0,0.0,1,1,0.0,1,1.0,0,1.0,0,1.0,0,1.0
31,65,'1',0.00329,0.03121,0.15293,513.4,513.4,513.4,0.0,0.0,0.0,0.0,1,1,0.0,1,1.0,0,1.0,0,1.0,0,1.0
31,2574,'1',0.00652,0.0629,0.18163,513.0,513.0,513.0,0.0,0.0,0.0,0.0,1,1,0.0,1,1.0,0,1.0,0,1.0,0,1.0
31,3567,'1',0.00127,0.01143,0.03245,651.5,651.5,651.5,0.0,0.0,0.0,0.0,1,1,0.0,1,1.0,0,1.0,0,1.0,0,1.0
31,3567,'2',0.00127,0.01143,0.03245,651.5,651.5,651.5,0.0,0.0,0.0,0.0,1,1,0.0,1,1.0,0,1.0,0,1.0,0,1.0
32,33,'1',0.00021,0.00116,0.0,99999.0,99999.0,99999.0,0.0,0.0,0.0,0.0,1,1,0.0,1,1.0,0,1.0,0,1.0,0,1.0
32,2282,'1',0.00716,0.03527,0.01736,178.4,178.4,178.4,0.0,0.0,0.0,0.0,1,1,0.0,1,1.0,0,1.0,0,1.0,0,1.0
34,56,'1',0.03264,0.16102,0.02997,134.9,134.9,134.9,0.0,0.0,0.0,0.0,1,1,0.0,1,1.0,0,1.0,0,1.0,0,1.0
35,36,'1',0.00024,0.00114,0.0,99999.0,99999.0,99999.0,0.0,0.0,0.0,0.0,1,1,0.0,1,1.0,0,1.0,0,1.0,0,1.0
35,62,'1',0.01883,0.10742,0.02725,115.3,115.3,115.3,0.0,0.0,0.0,0.0,1,1,0.0,1,1.0,0,1.0,0,1.0,0,1.0
37,39,'1',0.00025,0.00118,0.0,99999.0,99999.0,99999.0,0.0,0.0,0.0,0.0,1,1,0.0,1,1.0,0,1.0,0,1.0,0,1.0
37,2975,'1',0.00926,0.08957,0.19243,584.8,584.8,584.8,0.0,0.0,0.0,0.0,1,1,0.0,1,1.0,0,1.0,0,1.0,0,1.0
38,35,'1',0.01179,0.04912,0.01005,139.0,139.0,139.0,0.0,0.0,0.0,0.0,1,1,0.0,1,1.0,0,1.0,0,1.0,0,1.0
40,54,'1',0.00717,0.03214,0.01168,183.9,183.9,183.9,0.0,0.0,0.0,0.0,1,1,0.0,1,1.0,0,1.0,0,1.0,0,1.0
41,24,'1',0.00554,0.0269,0.01549,152.7,152.7,152.7,0.0,0.0,0.0,0.0,1,1,0.0,1,1.0,0,1.0,0,1.0,0,1.0
42,40,'1',0.00522,0.01499,0.00686,198.7,198.7,198.7,0.0,0.0,0.0,0.0,1,1,0.0,1,1.0,0,1.0,0,1.0,0,1.0
42,2282,'1',0.01068,0.05861,0.01552,200.1,200.1,200.1,0.0,0.0,0.0,0.0,1,1,0.0,1,1.0,0,1.0,0,1.0,0,1.0
43,41,'1',0.00246,0.01272,0.00586,168.0,168.0,168.0,0.0,0.0,0.0,0.0,1,1,0.0,1,1.0,0,1.0,0,1.0,0,1.0
43,3557,'1',0.00614,0.03023,0.00712,164.6,164.6,164.6,0.0,0.0,0.0,0.0,1,1,0.0,1,1.0,0,1.0,0,1.0,0,1.0
44,29,'1',0.00738,0.02468,0.00717,123.9,123.9,123.9,0.0,0.0,0.0,0.0,1,1,0.0,1,1.0,0,1.0,0,1.0,0,1.0
44,45,'1',0.0055,0.0265,0.0033,145.5,145.5,145.5,0.0,0.0,0.0,0.0,1,1,0.0,1,1.0,0,1.0,0,1.0,0,1.0
45,2282,'1',0.0079,0.04148,0.00396,162.4,162.4,162.4,0.0,0.0,0.0,0.0,1,1,0.0,1,1.0,0,1.0,0,1.0,0,1.0
46,38,'1',0.02563,0.14224,0.01306,169.3,169.3,169.3,0.0,0.0,0.0,0.0,1,1,0.0,1,1.0,0,1.0,0,1.0,0,1.0
48,47,'1',0.00865,0.03468,0.02152,166.3,166.3,166.3,0.0,0.0,0.0,0.0,1,1,0.0,1,1.0,0,1.0,0,1.0,0,1.0
48,71,'1',0.03201,0.12189,0.05261,176.6,176.6,176.6,0.0,0.0,0.0,0.0,1,1,0.0,1,1.0,0,1.0,0,1.0,0,1.0
49,50,'1',0.00022,0.00108,0.0,99999.0,99999.0,99999.0,0.0,0.0,0.0,0.0,1,1,0.0,1,1.0,0,1.0,0,1.0,0,1.0
50,86,'1',0.0328,0.16516,0.09333,116.2,116.2,116.2,0.0,0.0,0.0,0.0,1,1,0.0,1,1.0,0,1.0,0,1.0,0,1.0
51,59,'1',0.01464,0.04673,0.00744,114.8,114.8,114.8,0.0,0.0,0.0,0.0,1,1,0.0,1,1.0,0,1.0,0,1.0,0,1.0
52,53,'1',0.00021,0.00103,0.0,99999.0,99999.0,99999.0,0.0,0.0,0.0,0.0,1,1,0.0,1,1.0,0,1.0,0,1.0,0,1.0
53,54,'1',0.00707,0.03381,0.01158,147.3,147.3,147.3,0.0,0.0,0.0,0.0,1,1,0.0,1,1.0,0,1.0,0,1.0,0,1.0
53,59,'1',0.00623,0.0242,0.00374,121.3,121.3,121.3,0.0,0.0,0.0,0.0,1,1,0.0,1,1.0,0,1.0,0,1.0,0,1.0
54,51,'1',0.01384,0.04606,0.00524,145.7,145.7,145.7,0.0,0.0,0.0,0.0,1,1,0.0,1,1.0,0,1.0,0,1.0,0,1.0
54,55,'1',0.00027,0.00106,0.0,99999.0,99999.0,99999.0,0.0,0.0,0.0,0.0,1,1,0.0,1,1.0,0,1.0,0,1.0,0,1.0
56,46,'1',0.04103,0.16139,0.02102,159.3,159.3,159.3,0.0,0.0,0.0,0.0,1,1,0.0,1,1.0,0,1.0,0,1.0,0,1.0
56,57,'1',0.00022,0.00118,0.0,99999.0,99999.0,99999.0,0.0,0.0,0.0,0.0,1,1,0.0,1,1.0,0,1.0,0,1.0,0,1.0
56,96,'1',0.01994,0.09722,0.00985,136.4,136.4,136.4,0.0,0.0,0.0,0.0,1,1,0.0,1,1.0,0,1.0,0,1.0,0,1.0
58,64,'1',0.015,0.07401,0.00725,134.0,134.0,134.0,0.0,0.0,0.0,0.0,1,1,0.0,1,1.0,0,1.0,0,1.0,0,1.0
59,58,'1',0.00557,0.02601,0.00571,109.3,109.3,109.3,0.0,0.0,0.0,0.0,1,1,0.0,1,1.0,0,1.0,0,1.0,0,1.0
60,61,'1',0.0002,0.00106,0.0,99999.0,99999.0,99999.0,0.0,0.0,0.0,0.0,1,1,0.0,1,1.0,0,1.0,0,1.0,0,1.0
60,67,'1',0.00441,0.02151,0.01126,144.1,144.1,144.1,0.0,0.0,0.0,0.0,1,1,0.0,1,1.0,0,1.0,0,1.0,0,1.0
60,77,'1',0.00675,0.04224,0.01573,169.1,169.1,169.1,0.0,0.0,0.0,0.0,1,1,0.0,1,1.0,0,1.0,0,1.0,0,1.0
62,47,'1',0.0085,0.05417,0.06179,188.6,188.6,188.6,0.0,0.0,0.0,0.0,1,1,0.0,1,1.0,0,1.0,0,1.0,0,1.0
62,85,'1',0.01218,0.06348,0.01115,166.7,166.7,166.7,0.0,0.0,0.0,0.0,1,1,0.0,1,1.0,0,1.0,0,1.0,0,1.0
63,65,'1',0.0003,0.00111,0.0,99999.0,99999.0,99999.0,0.0,0.0,0.0,0.0,1,1,0.0,1,1.0,0,1.0,0,1.0,0,1.0
63,66,'1',0.0003,0.00116,0.0,99999.0,99999.0,99999.0,0.0,0.0,0.0,0.0,1,1,0.0,1,1.0,0,1.0,0,1.0,0,1.0
64,53,'1',0.00517,0.02427,0.00753,154.1,154.1,154.1,0.0,0.0,0.0,0.0,1,1,0.0,1,1.0,0,1.0,0,1.0,0,1.0
64,59,'1',0.00458,0.0236,0.00997,156.3,156.3,156.3,0.0,0.0,0.0,0.0,1,1,0.0,1,1.0,0,1.0,0,1.0,0,1.0
64,67,'1',0.00668,0.0258,0.00494,138.5,138.5,138.5,0.0,0.0,0.0,0.0,1,1,0.0,1,1.0,0,1.0,0,1.0,0,1.0
68,69,'1',0.00026,0.00104,0.0,99999.0,99999.0,99999.0,0.0,0.0,0.0,0.0,1,1,0.0,1,1.0,0,1.0,0,1.0,0,1.0
68,3394,'1',0.00964,0.03811,0.00673,120.4,120.4,120.4,0.0,0.0,0.0,0.0,1,1,0.0,1,1.0,0,1.0,0,1.0,0,1.0
70,68,'1',0.00842,0.04011,0.02742,161.6,161.6,161.6,0.0,0.0,0.0,0.0,1,1,0.0,1,1.0,0,1.0,0,1.0,0,1.0
70,2713,'1',0.01477,0.0596,0.01854,162.4,162.4,162.4,0.0,0.0,0.0,0.0,1,1,0.0,1,1.0,0,1.0,0,1.0,0,1.0
72,74,'1',0.00023,0.00109,0.0,99999.0,99999.0,99999.0,0.0,0.0,0.0,0.0,1,1,0.0,1,1.0,0,1.0,0,1.0,0,1.0
72,75,'1',0.00027,0.00118,0.0,99999.0,99999.0,99999.0,0.0,0.0,0.0,0.0,1,1,0.0,1,1.0,0,1.0,0,1.0,0,1.0
...